
---------- Begin Simulation Statistics ----------
final_tick                               109052135000                       # Number of ticks from beginning of simulation (restored from checkpoints and never reset)
host_inst_rate                                 192735                       # Simulator instruction rate (inst/s)
host_mem_usage                                 723380                       # Number of bytes of host memory used
host_op_rate                                   210350                       # Simulator op (including micro ops) rate (op/s)
host_seconds                                   518.85                       # Real time elapsed on the host
host_tick_rate                              210182113                       # Simulator tick rate (ticks/s)
sim_freq                                 1000000000000                       # Frequency of simulated ticks
sim_insts                                   100000000                       # Number of instructions simulated
sim_ops                                     109139424                       # Number of ops (including micro ops) simulated
sim_seconds                                  0.109052                       # Number of seconds simulated
sim_ticks                                109052135000                       # Number of ticks simulated
system.cpu.branchPred.BTBCorrect                    0                       # Number of correct BTB predictions (this stat may not work properly.
system.cpu.branchPred.BTBHitPct             92.963779                       # BTB Hit Percentage
system.cpu.branchPred.BTBHits                 8062967                       # Number of BTB hits
system.cpu.branchPred.BTBLookups              8673235                       # Number of BTB lookups
system.cpu.branchPred.RASInCorrect                482                       # Number of incorrect RAS predictions.
system.cpu.branchPred.condIncorrect             88893                       # Number of conditional branches incorrect
system.cpu.branchPred.condPredicted          15819062                       # Number of conditional branches predicted
system.cpu.branchPred.indirectHits             287881                       # Number of indirect target hits.
system.cpu.branchPred.indirectLookups          551106                       # Number of indirect predictor lookups.
system.cpu.branchPred.indirectMisses           263225                       # Number of indirect misses.
system.cpu.branchPred.lookups                19659474                       # Number of BP lookups
system.cpu.branchPred.usedRAS                 1050610                       # Number of times the RAS was used to get a target.
system.cpu.branchPredindirectMispredicted          986                       # Number of mispredicted indirect branches.
system.cpu.committedInsts                   100000000                       # Number of instructions committed
system.cpu.committedOps                     109139424                       # Number of ops (including micro ops) committed
system.cpu.cpi                               1.090521                       # CPI: cycles per instruction
system.cpu.discardedOps                        430624                       # Number of ops (including micro ops) which were discarded before commit
system.cpu.dtb.accesses                             0                       # DTB accesses
system.cpu.dtb.align_faults                         0                       # Number of TLB faults due to alignment restrictions
system.cpu.dtb.domain_faults                        0                       # Number of TLB faults due to domain restrictions
system.cpu.dtb.flush_entries                        0                       # Number of entries that have been flushed from TLB
system.cpu.dtb.flush_tlb                            0                       # Number of times complete TLB was flushed
system.cpu.dtb.flush_tlb_asid                       0                       # Number of times TLB was flushed by ASID
system.cpu.dtb.flush_tlb_mva                        0                       # Number of times TLB was flushed by MVA
system.cpu.dtb.flush_tlb_mva_asid                   0                       # Number of times TLB was flushed by MVA & ASID
system.cpu.dtb.hits                                 0                       # DTB hits
system.cpu.dtb.inst_accesses                        0                       # ITB inst accesses
system.cpu.dtb.inst_hits                            0                       # ITB inst hits
system.cpu.dtb.inst_misses                          0                       # ITB inst misses
system.cpu.dtb.misses                               0                       # DTB misses
system.cpu.dtb.perms_faults                         0                       # Number of TLB faults due to permissions restrictions
system.cpu.dtb.prefetch_faults                      0                       # Number of TLB faults due to prefetch
system.cpu.dtb.read_accesses                        0                       # DTB read accesses
system.cpu.dtb.read_hits                            0                       # DTB read hits
system.cpu.dtb.read_misses                          0                       # DTB read misses
system.cpu.dtb.stage2_mmu.stage2_tlb.accesses            0                       # DTB accesses
system.cpu.dtb.stage2_mmu.stage2_tlb.align_faults            0                       # Number of TLB faults due to alignment restrictions
system.cpu.dtb.stage2_mmu.stage2_tlb.domain_faults            0                       # Number of TLB faults due to domain restrictions
system.cpu.dtb.stage2_mmu.stage2_tlb.flush_entries            0                       # Number of entries that have been flushed from TLB
system.cpu.dtb.stage2_mmu.stage2_tlb.flush_tlb            0                       # Number of times complete TLB was flushed
system.cpu.dtb.stage2_mmu.stage2_tlb.flush_tlb_asid            0                       # Number of times TLB was flushed by ASID
system.cpu.dtb.stage2_mmu.stage2_tlb.flush_tlb_mva            0                       # Number of times TLB was flushed by MVA
system.cpu.dtb.stage2_mmu.stage2_tlb.flush_tlb_mva_asid            0                       # Number of times TLB was flushed by MVA & ASID
system.cpu.dtb.stage2_mmu.stage2_tlb.hits            0                       # DTB hits
system.cpu.dtb.stage2_mmu.stage2_tlb.inst_accesses            0                       # ITB inst accesses
system.cpu.dtb.stage2_mmu.stage2_tlb.inst_hits            0                       # ITB inst hits
system.cpu.dtb.stage2_mmu.stage2_tlb.inst_misses            0                       # ITB inst misses
system.cpu.dtb.stage2_mmu.stage2_tlb.misses            0                       # DTB misses
system.cpu.dtb.stage2_mmu.stage2_tlb.perms_faults            0                       # Number of TLB faults due to permissions restrictions
system.cpu.dtb.stage2_mmu.stage2_tlb.prefetch_faults            0                       # Number of TLB faults due to prefetch
system.cpu.dtb.stage2_mmu.stage2_tlb.read_accesses            0                       # DTB read accesses
system.cpu.dtb.stage2_mmu.stage2_tlb.read_hits            0                       # DTB read hits
system.cpu.dtb.stage2_mmu.stage2_tlb.read_misses            0                       # DTB read misses
system.cpu.dtb.stage2_mmu.stage2_tlb.walker.walkRequestOrigin_Requested::Data            0                       # Table walker requests started/completed, data/inst
system.cpu.dtb.stage2_mmu.stage2_tlb.walker.walkRequestOrigin_Requested::Inst            0                       # Table walker requests started/completed, data/inst
system.cpu.dtb.stage2_mmu.stage2_tlb.walker.walkRequestOrigin_Requested::total            0                       # Table walker requests started/completed, data/inst
system.cpu.dtb.stage2_mmu.stage2_tlb.walker.walkRequestOrigin_Completed::Data            0                       # Table walker requests started/completed, data/inst
system.cpu.dtb.stage2_mmu.stage2_tlb.walker.walkRequestOrigin_Completed::Inst            0                       # Table walker requests started/completed, data/inst
system.cpu.dtb.stage2_mmu.stage2_tlb.walker.walkRequestOrigin_Completed::total            0                       # Table walker requests started/completed, data/inst
system.cpu.dtb.stage2_mmu.stage2_tlb.walker.walkRequestOrigin::total            0                       # Table walker requests started/completed, data/inst
system.cpu.dtb.stage2_mmu.stage2_tlb.walker.walks            0                       # Table walker walks requested
system.cpu.dtb.stage2_mmu.stage2_tlb.write_accesses            0                       # DTB write accesses
system.cpu.dtb.stage2_mmu.stage2_tlb.write_hits            0                       # DTB write hits
system.cpu.dtb.stage2_mmu.stage2_tlb.write_misses            0                       # DTB write misses
system.cpu.dtb.walker.walkRequestOrigin_Requested::Data            0                       # Table walker requests started/completed, data/inst
system.cpu.dtb.walker.walkRequestOrigin_Requested::Inst            0                       # Table walker requests started/completed, data/inst
system.cpu.dtb.walker.walkRequestOrigin_Requested::total            0                       # Table walker requests started/completed, data/inst
system.cpu.dtb.walker.walkRequestOrigin_Completed::Data            0                       # Table walker requests started/completed, data/inst
system.cpu.dtb.walker.walkRequestOrigin_Completed::Inst            0                       # Table walker requests started/completed, data/inst
system.cpu.dtb.walker.walkRequestOrigin_Completed::total            0                       # Table walker requests started/completed, data/inst
system.cpu.dtb.walker.walkRequestOrigin::total            0                       # Table walker requests started/completed, data/inst
system.cpu.dtb.walker.walks                         0                       # Table walker walks requested
system.cpu.dtb.write_accesses                       0                       # DTB write accesses
system.cpu.dtb.write_hits                           0                       # DTB write hits
system.cpu.dtb.write_misses                         0                       # DTB write misses
system.cpu.fetch2.amo_instructions                  0                       # Number of memory atomic instructions successfully decoded
system.cpu.fetch2.fp_instructions                   0                       # Number of floating point instructions successfully decoded
system.cpu.fetch2.int_instructions           49083070                       # Number of integer instructions successfully decoded
system.cpu.fetch2.load_instructions          17523788                       # Number of memory load instructions successfully decoded
system.cpu.fetch2.store_instructions         10083666                       # Number of memory store instructions successfully decoded
system.cpu.fetch2.vec_instructions                  0                       # Number of SIMD instructions successfully decoded
system.cpu.idleCycles                         2475352                       # Total number of cycles that the object has spent stopped
system.cpu.ipc                               0.916993                       # IPC: instructions per cycle
system.cpu.itb.accesses                             0                       # DTB accesses
system.cpu.itb.align_faults                         0                       # Number of TLB faults due to alignment restrictions
system.cpu.itb.domain_faults                        0                       # Number of TLB faults due to domain restrictions
system.cpu.itb.flush_entries                        0                       # Number of entries that have been flushed from TLB
system.cpu.itb.flush_tlb                            0                       # Number of times complete TLB was flushed
system.cpu.itb.flush_tlb_asid                       0                       # Number of times TLB was flushed by ASID
system.cpu.itb.flush_tlb_mva                        0                       # Number of times TLB was flushed by MVA
system.cpu.itb.flush_tlb_mva_asid                   0                       # Number of times TLB was flushed by MVA & ASID
system.cpu.itb.hits                                 0                       # DTB hits
system.cpu.itb.inst_accesses                        0                       # ITB inst accesses
system.cpu.itb.inst_hits                            0                       # ITB inst hits
system.cpu.itb.inst_misses                          0                       # ITB inst misses
system.cpu.itb.misses                               0                       # DTB misses
system.cpu.itb.perms_faults                         0                       # Number of TLB faults due to permissions restrictions
system.cpu.itb.prefetch_faults                      0                       # Number of TLB faults due to prefetch
system.cpu.itb.read_accesses                        0                       # DTB read accesses
system.cpu.itb.read_hits                            0                       # DTB read hits
system.cpu.itb.read_misses                          0                       # DTB read misses
system.cpu.itb.stage2_mmu.stage2_tlb.accesses            0                       # DTB accesses
system.cpu.itb.stage2_mmu.stage2_tlb.align_faults            0                       # Number of TLB faults due to alignment restrictions
system.cpu.itb.stage2_mmu.stage2_tlb.domain_faults            0                       # Number of TLB faults due to domain restrictions
system.cpu.itb.stage2_mmu.stage2_tlb.flush_entries            0                       # Number of entries that have been flushed from TLB
system.cpu.itb.stage2_mmu.stage2_tlb.flush_tlb            0                       # Number of times complete TLB was flushed
system.cpu.itb.stage2_mmu.stage2_tlb.flush_tlb_asid            0                       # Number of times TLB was flushed by ASID
system.cpu.itb.stage2_mmu.stage2_tlb.flush_tlb_mva            0                       # Number of times TLB was flushed by MVA
system.cpu.itb.stage2_mmu.stage2_tlb.flush_tlb_mva_asid            0                       # Number of times TLB was flushed by MVA & ASID
system.cpu.itb.stage2_mmu.stage2_tlb.hits            0                       # DTB hits
system.cpu.itb.stage2_mmu.stage2_tlb.inst_accesses            0                       # ITB inst accesses
system.cpu.itb.stage2_mmu.stage2_tlb.inst_hits            0                       # ITB inst hits
system.cpu.itb.stage2_mmu.stage2_tlb.inst_misses            0                       # ITB inst misses
system.cpu.itb.stage2_mmu.stage2_tlb.misses            0                       # DTB misses
system.cpu.itb.stage2_mmu.stage2_tlb.perms_faults            0                       # Number of TLB faults due to permissions restrictions
system.cpu.itb.stage2_mmu.stage2_tlb.prefetch_faults            0                       # Number of TLB faults due to prefetch
system.cpu.itb.stage2_mmu.stage2_tlb.read_accesses            0                       # DTB read accesses
system.cpu.itb.stage2_mmu.stage2_tlb.read_hits            0                       # DTB read hits
system.cpu.itb.stage2_mmu.stage2_tlb.read_misses            0                       # DTB read misses
system.cpu.itb.stage2_mmu.stage2_tlb.walker.walkRequestOrigin_Requested::Data            0                       # Table walker requests started/completed, data/inst
system.cpu.itb.stage2_mmu.stage2_tlb.walker.walkRequestOrigin_Requested::Inst            0                       # Table walker requests started/completed, data/inst
system.cpu.itb.stage2_mmu.stage2_tlb.walker.walkRequestOrigin_Requested::total            0                       # Table walker requests started/completed, data/inst
system.cpu.itb.stage2_mmu.stage2_tlb.walker.walkRequestOrigin_Completed::Data            0                       # Table walker requests started/completed, data/inst
system.cpu.itb.stage2_mmu.stage2_tlb.walker.walkRequestOrigin_Completed::Inst            0                       # Table walker requests started/completed, data/inst
system.cpu.itb.stage2_mmu.stage2_tlb.walker.walkRequestOrigin_Completed::total            0                       # Table walker requests started/completed, data/inst
system.cpu.itb.stage2_mmu.stage2_tlb.walker.walkRequestOrigin::total            0                       # Table walker requests started/completed, data/inst
system.cpu.itb.stage2_mmu.stage2_tlb.walker.walks            0                       # Table walker walks requested
system.cpu.itb.stage2_mmu.stage2_tlb.write_accesses            0                       # DTB write accesses
system.cpu.itb.stage2_mmu.stage2_tlb.write_hits            0                       # DTB write hits
system.cpu.itb.stage2_mmu.stage2_tlb.write_misses            0                       # DTB write misses
system.cpu.itb.walker.walkRequestOrigin_Requested::Data            0                       # Table walker requests started/completed, data/inst
system.cpu.itb.walker.walkRequestOrigin_Requested::Inst            0                       # Table walker requests started/completed, data/inst
system.cpu.itb.walker.walkRequestOrigin_Requested::total            0                       # Table walker requests started/completed, data/inst
system.cpu.itb.walker.walkRequestOrigin_Completed::Data            0                       # Table walker requests started/completed, data/inst
system.cpu.itb.walker.walkRequestOrigin_Completed::Inst            0                       # Table walker requests started/completed, data/inst
system.cpu.itb.walker.walkRequestOrigin_Completed::total            0                       # Table walker requests started/completed, data/inst
system.cpu.itb.walker.walkRequestOrigin::total            0                       # Table walker requests started/completed, data/inst
system.cpu.itb.walker.walks                         0                       # Table walker walks requested
system.cpu.itb.write_accesses                       0                       # DTB write accesses
system.cpu.itb.write_hits                           0                       # DTB write hits
system.cpu.itb.write_misses                         0                       # DTB write misses
system.cpu.numCycles                        109052135                       # number of cpu cycles simulated
system.cpu.numFetchSuspends                         0                       # Number of times Execute suspended instruction fetching
system.cpu.numWorkItemsCompleted                    0                       # number of work items this cpu completed
system.cpu.numWorkItemsStarted                      0                       # number of work items this cpu started
system.cpu.op_class_0::No_OpClass                   0      0.00%      0.00% # Class of committed instruction
system.cpu.op_class_0::IntAlu                72223173     66.18%     66.18% # Class of committed instruction
system.cpu.op_class_0::IntMult                 547032      0.50%     66.68% # Class of committed instruction
system.cpu.op_class_0::IntDiv                       0      0.00%     66.68% # Class of committed instruction
system.cpu.op_class_0::FloatAdd                     0      0.00%     66.68% # Class of committed instruction
system.cpu.op_class_0::FloatCmp                     0      0.00%     66.68% # Class of committed instruction
system.cpu.op_class_0::FloatCvt                     0      0.00%     66.68% # Class of committed instruction
system.cpu.op_class_0::FloatMult                    0      0.00%     66.68% # Class of committed instruction
system.cpu.op_class_0::FloatMultAcc                 0      0.00%     66.68% # Class of committed instruction
system.cpu.op_class_0::FloatDiv                     0      0.00%     66.68% # Class of committed instruction
system.cpu.op_class_0::FloatMisc                    0      0.00%     66.68% # Class of committed instruction
system.cpu.op_class_0::FloatSqrt                    0      0.00%     66.68% # Class of committed instruction
system.cpu.op_class_0::SimdAdd                 231656      0.21%     66.89% # Class of committed instruction
system.cpu.op_class_0::SimdAddAcc                   0      0.00%     66.89% # Class of committed instruction
system.cpu.op_class_0::SimdAlu                 148482      0.14%     67.02% # Class of committed instruction
system.cpu.op_class_0::SimdCmp                 115828      0.11%     67.13% # Class of committed instruction
system.cpu.op_class_0::SimdCvt                      0      0.00%     67.13% # Class of committed instruction
system.cpu.op_class_0::SimdMisc                 42808      0.04%     67.17% # Class of committed instruction
system.cpu.op_class_0::SimdMult                     0      0.00%     67.17% # Class of committed instruction
system.cpu.op_class_0::SimdMultAcc                  0      0.00%     67.17% # Class of committed instruction
system.cpu.op_class_0::SimdShift                    0      0.00%     67.17% # Class of committed instruction
system.cpu.op_class_0::SimdShiftAcc                 0      0.00%     67.17% # Class of committed instruction
system.cpu.op_class_0::SimdDiv                      0      0.00%     67.17% # Class of committed instruction
system.cpu.op_class_0::SimdSqrt                     0      0.00%     67.17% # Class of committed instruction
system.cpu.op_class_0::SimdFloatAdd                 0      0.00%     67.17% # Class of committed instruction
system.cpu.op_class_0::SimdFloatAlu                 0      0.00%     67.17% # Class of committed instruction
system.cpu.op_class_0::SimdFloatCmp                 0      0.00%     67.17% # Class of committed instruction
system.cpu.op_class_0::SimdFloatCvt                 0      0.00%     67.17% # Class of committed instruction
system.cpu.op_class_0::SimdFloatDiv                 0      0.00%     67.17% # Class of committed instruction
system.cpu.op_class_0::SimdFloatMisc           159857      0.15%     67.32% # Class of committed instruction
system.cpu.op_class_0::SimdFloatMult                0      0.00%     67.32% # Class of committed instruction
system.cpu.op_class_0::SimdFloatMultAcc             0      0.00%     67.32% # Class of committed instruction
system.cpu.op_class_0::SimdFloatSqrt                0      0.00%     67.32% # Class of committed instruction
system.cpu.op_class_0::SimdReduceAdd                0      0.00%     67.32% # Class of committed instruction
system.cpu.op_class_0::SimdReduceAlu                0      0.00%     67.32% # Class of committed instruction
system.cpu.op_class_0::SimdReduceCmp                0      0.00%     67.32% # Class of committed instruction
system.cpu.op_class_0::SimdFloatReduceAdd            0      0.00%     67.32% # Class of committed instruction
system.cpu.op_class_0::SimdFloatReduceCmp            0      0.00%     67.32% # Class of committed instruction
system.cpu.op_class_0::SimdAes                      0      0.00%     67.32% # Class of committed instruction
system.cpu.op_class_0::SimdAesMix                   0      0.00%     67.32% # Class of committed instruction
system.cpu.op_class_0::SimdSha1Hash                 0      0.00%     67.32% # Class of committed instruction
system.cpu.op_class_0::SimdSha1Hash2                0      0.00%     67.32% # Class of committed instruction
system.cpu.op_class_0::SimdSha256Hash               0      0.00%     67.32% # Class of committed instruction
system.cpu.op_class_0::SimdSha256Hash2              0      0.00%     67.32% # Class of committed instruction
system.cpu.op_class_0::SimdShaSigma2                0      0.00%     67.32% # Class of committed instruction
system.cpu.op_class_0::SimdShaSigma3                0      0.00%     67.32% # Class of committed instruction
system.cpu.op_class_0::SimdPredAlu                  0      0.00%     67.32% # Class of committed instruction
system.cpu.op_class_0::MemRead               20932798     19.18%     86.50% # Class of committed instruction
system.cpu.op_class_0::MemWrite              14737790     13.50%    100.00% # Class of committed instruction
system.cpu.op_class_0::FloatMemRead                 0      0.00%    100.00% # Class of committed instruction
system.cpu.op_class_0::FloatMemWrite                0      0.00%    100.00% # Class of committed instruction
system.cpu.op_class_0::IprAccess                    0      0.00%    100.00% # Class of committed instruction
system.cpu.op_class_0::InstPrefetch                 0      0.00%    100.00% # Class of committed instruction
system.cpu.op_class_0::total                109139424                       # Class of committed instruction
system.cpu.tickCycles                       106576783                       # Number of cycles that the object actually ticked
system.cpu.workload.numSyscalls                    85                       # Number of system calls
system.membus.snoop_filter.hit_multi_requests            0                       # Number of requests hitting in the snoop filter with multiple (>1) holders of the requested data.
system.membus.snoop_filter.hit_multi_snoops            0                       # Number of snoops hitting in the snoop filter with multiple (>1) holders of the requested data.
system.membus.snoop_filter.hit_single_requests         5604                       # Number of requests hitting in the snoop filter with a single holder of the requested data.
system.membus.snoop_filter.hit_single_snoops            0                       # Number of snoops hitting in the snoop filter with a single holder of the requested data.
system.membus.snoop_filter.tot_requests         44436                       # Total number of requests made to the snoop filter.
system.membus.snoop_filter.tot_snoops               0                       # Total number of snoops made to the snoop filter.
system.tol2bus.snoop_filter.hit_multi_requests           15                       # Number of requests hitting in the snoop filter with multiple (>1) holders of the requested data.
system.tol2bus.snoop_filter.hit_multi_snoops            2                       # Number of snoops hitting in the snoop filter with multiple (>1) holders of the requested data.
system.tol2bus.snoop_filter.hit_single_requests        49359                       # Number of requests hitting in the snoop filter with a single holder of the requested data.
system.tol2bus.snoop_filter.hit_single_snoops          458                       # Number of snoops hitting in the snoop filter with a single holder of the requested data.
system.tol2bus.snoop_filter.tot_requests       100175                       # Total number of requests made to the snoop filter.
system.tol2bus.snoop_filter.tot_snoops            460                       # Total number of snoops made to the snoop filter.
system.membus.pwrStateResidencyTicks::UNDEFINED 109052135000                       # Cumulative time (in ticks) in various power states
system.membus.trans_dist::ReadResp                892                       # Transaction distribution
system.membus.trans_dist::WritebackDirty         5481                       # Transaction distribution
system.membus.trans_dist::CleanEvict              123                       # Transaction distribution
system.membus.trans_dist::ReadExReq             37940                       # Transaction distribution
system.membus.trans_dist::ReadExResp            37940                       # Transaction distribution
system.membus.trans_dist::ReadSharedReq           892                       # Transaction distribution
system.membus.pkt_count_system.l2.mem_side::system.mem_ctrls.port        83268                       # Packet count per connected master and slave (bytes)
system.membus.pkt_count::total                  83268                       # Packet count per connected master and slave (bytes)
system.membus.pkt_size_system.l2.mem_side::system.mem_ctrls.port      2836032                       # Cumulative packet size per connected master and slave (bytes)
system.membus.pkt_size::total                 2836032                       # Cumulative packet size per connected master and slave (bytes)
system.membus.snoops                                0                       # Total snoops (count)
system.membus.snoopTraffic                          0                       # Total snoop traffic (bytes)
system.membus.snoop_fanout::samples             38832                       # Request fanout histogram
system.membus.snoop_fanout::mean                    0                       # Request fanout histogram
system.membus.snoop_fanout::stdev                   0                       # Request fanout histogram
system.membus.snoop_fanout::underflows              0      0.00%      0.00% # Request fanout histogram
system.membus.snoop_fanout::0                   38832    100.00%    100.00% # Request fanout histogram
system.membus.snoop_fanout::1                       0      0.00%    100.00% # Request fanout histogram
system.membus.snoop_fanout::overflows               0      0.00%    100.00% # Request fanout histogram
system.membus.snoop_fanout::min_value               0                       # Request fanout histogram
system.membus.snoop_fanout::max_value               0                       # Request fanout histogram
system.membus.snoop_fanout::total               38832                       # Request fanout histogram
system.membus.respLayer1.occupancy          208636750                       # Layer occupancy (ticks)
system.membus.respLayer1.utilization              0.2                       # Layer utilization (%)
system.membus.reqLayer0.occupancy            66360000                       # Layer occupancy (ticks)
system.membus.reqLayer0.utilization               0.1                       # Layer utilization (%)
system.tol2bus.pwrStateResidencyTicks::UNDEFINED 109052135000                       # Cumulative time (in ticks) in various power states
system.tol2bus.trans_dist::ReadResp             12871                       # Transaction distribution
system.tol2bus.trans_dist::WritebackDirty        52948                       # Transaction distribution
system.tol2bus.trans_dist::WritebackClean           90                       # Transaction distribution
system.tol2bus.trans_dist::CleanEvict            2383                       # Transaction distribution
system.tol2bus.trans_dist::ReadExReq            37947                       # Transaction distribution
system.tol2bus.trans_dist::ReadExResp           37947                       # Transaction distribution
system.tol2bus.trans_dist::ReadCleanReq           527                       # Transaction distribution
system.tol2bus.trans_dist::ReadSharedReq        12344                       # Transaction distribution
system.tol2bus.pkt_count_system.cpu.icache.mem_side::system.l2.cpu_side         1144                       # Packet count per connected master and slave (bytes)
system.tol2bus.pkt_count_system.cpu.dcache.mem_side::system.l2.cpu_side       149849                       # Packet count per connected master and slave (bytes)
system.tol2bus.pkt_count::total                150993                       # Packet count per connected master and slave (bytes)
system.tol2bus.pkt_size_system.cpu.icache.mem_side::system.l2.cpu_side        39488                       # Cumulative packet size per connected master and slave (bytes)
system.tol2bus.pkt_size_system.cpu.dcache.mem_side::system.l2.cpu_side      6256512                       # Cumulative packet size per connected master and slave (bytes)
system.tol2bus.pkt_size::total                6296000                       # Cumulative packet size per connected master and slave (bytes)
system.tol2bus.snoops                            6064                       # Total snoops (count)
system.tol2bus.snoopTraffic                    350784                       # Total snoop traffic (bytes)
system.tol2bus.snoop_fanout::samples            56882                       # Request fanout histogram
system.tol2bus.snoop_fanout::mean            0.008421                       # Request fanout histogram
system.tol2bus.snoop_fanout::stdev           0.091763                       # Request fanout histogram
system.tol2bus.snoop_fanout::underflows             0      0.00%      0.00% # Request fanout histogram
system.tol2bus.snoop_fanout::0                  56405     99.16%     99.16% # Request fanout histogram
system.tol2bus.snoop_fanout::1                    475      0.84%    100.00% # Request fanout histogram
system.tol2bus.snoop_fanout::2                      2      0.00%    100.00% # Request fanout histogram
system.tol2bus.snoop_fanout::overflows              0      0.00%    100.00% # Request fanout histogram
system.tol2bus.snoop_fanout::min_value              0                       # Request fanout histogram
system.tol2bus.snoop_fanout::max_value              2                       # Request fanout histogram
system.tol2bus.snoop_fanout::total              56882                       # Request fanout histogram
system.tol2bus.reqLayer0.occupancy          195289000                       # Layer occupancy (ticks)
system.tol2bus.reqLayer0.utilization              0.2                       # Layer utilization (%)
system.tol2bus.respLayer1.occupancy         150873999                       # Layer occupancy (ticks)
system.tol2bus.respLayer1.utilization             0.1                       # Layer utilization (%)
system.tol2bus.respLayer0.occupancy           1581999                       # Layer occupancy (ticks)
system.tol2bus.respLayer0.utilization             0.0                       # Layer utilization (%)
system.voltage_domain.voltage                       1                       # Voltage in Volts
system.clk_domain.clock                          1000                       # Clock period in ticks
system.l2.pwrStateResidencyTicks::UNDEFINED 109052135000                       # Cumulative time (in ticks) in various power states
system.l2.demand_hits::.cpu.inst                   20                       # number of demand (read+write) hits
system.l2.demand_hits::.cpu.data                11964                       # number of demand (read+write) hits
system.l2.demand_hits::total                    11984                       # number of demand (read+write) hits
system.l2.overall_hits::.cpu.inst                  20                       # number of overall hits
system.l2.overall_hits::.cpu.data               11964                       # number of overall hits
system.l2.overall_hits::total                   11984                       # number of overall hits
system.l2.demand_misses::.cpu.inst                507                       # number of demand (read+write) misses
system.l2.demand_misses::.cpu.data              38327                       # number of demand (read+write) misses
system.l2.demand_misses::total                  38834                       # number of demand (read+write) misses
system.l2.overall_misses::.cpu.inst               507                       # number of overall misses
system.l2.overall_misses::.cpu.data             38327                       # number of overall misses
system.l2.overall_misses::total                 38834                       # number of overall misses
system.l2.demand_miss_latency::.cpu.inst     48609000                       # number of demand (read+write) miss cycles
system.l2.demand_miss_latency::.cpu.data   4123286000                       # number of demand (read+write) miss cycles
system.l2.demand_miss_latency::total       4171895000                       # number of demand (read+write) miss cycles
system.l2.overall_miss_latency::.cpu.inst     48609000                       # number of overall miss cycles
system.l2.overall_miss_latency::.cpu.data   4123286000                       # number of overall miss cycles
system.l2.overall_miss_latency::total      4171895000                       # number of overall miss cycles
system.l2.demand_accesses::.cpu.inst              527                       # number of demand (read+write) accesses
system.l2.demand_accesses::.cpu.data            50291                       # number of demand (read+write) accesses
system.l2.demand_accesses::total                50818                       # number of demand (read+write) accesses
system.l2.overall_accesses::.cpu.inst             527                       # number of overall (read+write) accesses
system.l2.overall_accesses::.cpu.data           50291                       # number of overall (read+write) accesses
system.l2.overall_accesses::total               50818                       # number of overall (read+write) accesses
system.l2.demand_miss_rate::.cpu.inst        0.962049                       # miss rate for demand accesses
system.l2.demand_miss_rate::.cpu.data        0.762105                       # miss rate for demand accesses
system.l2.demand_miss_rate::total            0.764178                       # miss rate for demand accesses
system.l2.overall_miss_rate::.cpu.inst       0.962049                       # miss rate for overall accesses
system.l2.overall_miss_rate::.cpu.data       0.762105                       # miss rate for overall accesses
system.l2.overall_miss_rate::total           0.764178                       # miss rate for overall accesses
system.l2.demand_avg_miss_latency::.cpu.inst 95875.739645                       # average overall miss latency
system.l2.demand_avg_miss_latency::.cpu.data 107581.756986                       # average overall miss latency
system.l2.demand_avg_miss_latency::total 107428.928259                       # average overall miss latency
system.l2.overall_avg_miss_latency::.cpu.inst 95875.739645                       # average overall miss latency
system.l2.overall_avg_miss_latency::.cpu.data 107581.756986                       # average overall miss latency
system.l2.overall_avg_miss_latency::total 107428.928259                       # average overall miss latency
system.l2.blocked_cycles::no_mshrs                  0                       # number of cycles access was blocked
system.l2.blocked_cycles::no_targets                0                       # number of cycles access was blocked
system.l2.blocked::no_mshrs                         0                       # number of cycles access was blocked
system.l2.blocked::no_targets                       0                       # number of cycles access was blocked
system.l2.avg_blocked_cycles::no_mshrs            nan                       # average number of cycles each access was blocked
system.l2.avg_blocked_cycles::no_targets          nan                       # average number of cycles each access was blocked
system.l2.writebacks::.writebacks                5481                       # number of writebacks
system.l2.writebacks::total                      5481                       # number of writebacks
system.l2.demand_mshr_hits::.cpu.inst               1                       # number of demand (read+write) MSHR hits
system.l2.demand_mshr_hits::.cpu.data               1                       # number of demand (read+write) MSHR hits
system.l2.demand_mshr_hits::total                   2                       # number of demand (read+write) MSHR hits
system.l2.overall_mshr_hits::.cpu.inst              1                       # number of overall MSHR hits
system.l2.overall_mshr_hits::.cpu.data              1                       # number of overall MSHR hits
system.l2.overall_mshr_hits::total                  2                       # number of overall MSHR hits
system.l2.demand_mshr_misses::.cpu.inst           506                       # number of demand (read+write) MSHR misses
system.l2.demand_mshr_misses::.cpu.data         38326                       # number of demand (read+write) MSHR misses
system.l2.demand_mshr_misses::total             38832                       # number of demand (read+write) MSHR misses
system.l2.overall_mshr_misses::.cpu.inst          506                       # number of overall MSHR misses
system.l2.overall_mshr_misses::.cpu.data        38326                       # number of overall MSHR misses
system.l2.overall_mshr_misses::total            38832                       # number of overall MSHR misses
system.l2.demand_mshr_miss_latency::.cpu.inst     38415000                       # number of demand (read+write) MSHR miss cycles
system.l2.demand_mshr_miss_latency::.cpu.data   3356679000                       # number of demand (read+write) MSHR miss cycles
system.l2.demand_mshr_miss_latency::total   3395094000                       # number of demand (read+write) MSHR miss cycles
system.l2.overall_mshr_miss_latency::.cpu.inst     38415000                       # number of overall MSHR miss cycles
system.l2.overall_mshr_miss_latency::.cpu.data   3356679000                       # number of overall MSHR miss cycles
system.l2.overall_mshr_miss_latency::total   3395094000                       # number of overall MSHR miss cycles
system.l2.demand_mshr_miss_rate::.cpu.inst     0.960152                       # mshr miss rate for demand accesses
system.l2.demand_mshr_miss_rate::.cpu.data     0.762085                       # mshr miss rate for demand accesses
system.l2.demand_mshr_miss_rate::total       0.764139                       # mshr miss rate for demand accesses
system.l2.overall_mshr_miss_rate::.cpu.inst     0.960152                       # mshr miss rate for overall accesses
system.l2.overall_mshr_miss_rate::.cpu.data     0.762085                       # mshr miss rate for overall accesses
system.l2.overall_mshr_miss_rate::total      0.764139                       # mshr miss rate for overall accesses
system.l2.demand_avg_mshr_miss_latency::.cpu.inst 75918.972332                       # average overall mshr miss latency
system.l2.demand_avg_mshr_miss_latency::.cpu.data 87582.294004                       # average overall mshr miss latency
system.l2.demand_avg_mshr_miss_latency::total 87430.315204                       # average overall mshr miss latency
system.l2.overall_avg_mshr_miss_latency::.cpu.inst 75918.972332                       # average overall mshr miss latency
system.l2.overall_avg_mshr_miss_latency::.cpu.data 87582.294004                       # average overall mshr miss latency
system.l2.overall_avg_mshr_miss_latency::total 87430.315204                       # average overall mshr miss latency
system.l2.replacements                           6064                       # number of replacements
system.l2.WritebackDirty_hits::.writebacks        47467                       # number of WritebackDirty hits
system.l2.WritebackDirty_hits::total            47467                       # number of WritebackDirty hits
system.l2.WritebackDirty_accesses::.writebacks        47467                       # number of WritebackDirty accesses(hits+misses)
system.l2.WritebackDirty_accesses::total        47467                       # number of WritebackDirty accesses(hits+misses)
system.l2.WritebackClean_hits::.writebacks           85                       # number of WritebackClean hits
system.l2.WritebackClean_hits::total               85                       # number of WritebackClean hits
system.l2.WritebackClean_accesses::.writebacks           85                       # number of WritebackClean accesses(hits+misses)
system.l2.WritebackClean_accesses::total           85                       # number of WritebackClean accesses(hits+misses)
system.l2.ReadExReq_hits::.cpu.data                 7                       # number of ReadExReq hits
system.l2.ReadExReq_hits::total                     7                       # number of ReadExReq hits
system.l2.ReadExReq_misses::.cpu.data           37940                       # number of ReadExReq misses
system.l2.ReadExReq_misses::total               37940                       # number of ReadExReq misses
system.l2.ReadExReq_miss_latency::.cpu.data   4080422000                       # number of ReadExReq miss cycles
system.l2.ReadExReq_miss_latency::total    4080422000                       # number of ReadExReq miss cycles
system.l2.ReadExReq_accesses::.cpu.data         37947                       # number of ReadExReq accesses(hits+misses)
system.l2.ReadExReq_accesses::total             37947                       # number of ReadExReq accesses(hits+misses)
system.l2.ReadExReq_miss_rate::.cpu.data     0.999816                       # miss rate for ReadExReq accesses
system.l2.ReadExReq_miss_rate::total         0.999816                       # miss rate for ReadExReq accesses
system.l2.ReadExReq_avg_miss_latency::.cpu.data 107549.341065                       # average ReadExReq miss latency
system.l2.ReadExReq_avg_miss_latency::total 107549.341065                       # average ReadExReq miss latency
system.l2.ReadExReq_mshr_misses::.cpu.data        37940                       # number of ReadExReq MSHR misses
system.l2.ReadExReq_mshr_misses::total          37940                       # number of ReadExReq MSHR misses
system.l2.ReadExReq_mshr_miss_latency::.cpu.data   3321622000                       # number of ReadExReq MSHR miss cycles
system.l2.ReadExReq_mshr_miss_latency::total   3321622000                       # number of ReadExReq MSHR miss cycles
system.l2.ReadExReq_mshr_miss_rate::.cpu.data     0.999816                       # mshr miss rate for ReadExReq accesses
system.l2.ReadExReq_mshr_miss_rate::total     0.999816                       # mshr miss rate for ReadExReq accesses
system.l2.ReadExReq_avg_mshr_miss_latency::.cpu.data 87549.341065                       # average ReadExReq mshr miss latency
system.l2.ReadExReq_avg_mshr_miss_latency::total 87549.341065                       # average ReadExReq mshr miss latency
system.l2.ReadCleanReq_hits::.cpu.inst             20                       # number of ReadCleanReq hits
system.l2.ReadCleanReq_hits::total                 20                       # number of ReadCleanReq hits
system.l2.ReadCleanReq_misses::.cpu.inst          507                       # number of ReadCleanReq misses
system.l2.ReadCleanReq_misses::total              507                       # number of ReadCleanReq misses
system.l2.ReadCleanReq_miss_latency::.cpu.inst     48609000                       # number of ReadCleanReq miss cycles
system.l2.ReadCleanReq_miss_latency::total     48609000                       # number of ReadCleanReq miss cycles
system.l2.ReadCleanReq_accesses::.cpu.inst          527                       # number of ReadCleanReq accesses(hits+misses)
system.l2.ReadCleanReq_accesses::total            527                       # number of ReadCleanReq accesses(hits+misses)
system.l2.ReadCleanReq_miss_rate::.cpu.inst     0.962049                       # miss rate for ReadCleanReq accesses
system.l2.ReadCleanReq_miss_rate::total      0.962049                       # miss rate for ReadCleanReq accesses
system.l2.ReadCleanReq_avg_miss_latency::.cpu.inst 95875.739645                       # average ReadCleanReq miss latency
system.l2.ReadCleanReq_avg_miss_latency::total 95875.739645                       # average ReadCleanReq miss latency
system.l2.ReadCleanReq_mshr_hits::.cpu.inst            1                       # number of ReadCleanReq MSHR hits
system.l2.ReadCleanReq_mshr_hits::total             1                       # number of ReadCleanReq MSHR hits
system.l2.ReadCleanReq_mshr_misses::.cpu.inst          506                       # number of ReadCleanReq MSHR misses
system.l2.ReadCleanReq_mshr_misses::total          506                       # number of ReadCleanReq MSHR misses
system.l2.ReadCleanReq_mshr_miss_latency::.cpu.inst     38415000                       # number of ReadCleanReq MSHR miss cycles
system.l2.ReadCleanReq_mshr_miss_latency::total     38415000                       # number of ReadCleanReq MSHR miss cycles
system.l2.ReadCleanReq_mshr_miss_rate::.cpu.inst     0.960152                       # mshr miss rate for ReadCleanReq accesses
system.l2.ReadCleanReq_mshr_miss_rate::total     0.960152                       # mshr miss rate for ReadCleanReq accesses
system.l2.ReadCleanReq_avg_mshr_miss_latency::.cpu.inst 75918.972332                       # average ReadCleanReq mshr miss latency
system.l2.ReadCleanReq_avg_mshr_miss_latency::total 75918.972332                       # average ReadCleanReq mshr miss latency
system.l2.ReadSharedReq_hits::.cpu.data         11957                       # number of ReadSharedReq hits
system.l2.ReadSharedReq_hits::total             11957                       # number of ReadSharedReq hits
system.l2.ReadSharedReq_misses::.cpu.data          387                       # number of ReadSharedReq misses
system.l2.ReadSharedReq_misses::total             387                       # number of ReadSharedReq misses
system.l2.ReadSharedReq_miss_latency::.cpu.data     42864000                       # number of ReadSharedReq miss cycles
system.l2.ReadSharedReq_miss_latency::total     42864000                       # number of ReadSharedReq miss cycles
system.l2.ReadSharedReq_accesses::.cpu.data        12344                       # number of ReadSharedReq accesses(hits+misses)
system.l2.ReadSharedReq_accesses::total         12344                       # number of ReadSharedReq accesses(hits+misses)
system.l2.ReadSharedReq_miss_rate::.cpu.data     0.031351                       # miss rate for ReadSharedReq accesses
system.l2.ReadSharedReq_miss_rate::total     0.031351                       # miss rate for ReadSharedReq accesses
system.l2.ReadSharedReq_avg_miss_latency::.cpu.data 110759.689922                       # average ReadSharedReq miss latency
system.l2.ReadSharedReq_avg_miss_latency::total 110759.689922                       # average ReadSharedReq miss latency
system.l2.ReadSharedReq_mshr_hits::.cpu.data            1                       # number of ReadSharedReq MSHR hits
system.l2.ReadSharedReq_mshr_hits::total            1                       # number of ReadSharedReq MSHR hits
system.l2.ReadSharedReq_mshr_misses::.cpu.data          386                       # number of ReadSharedReq MSHR misses
system.l2.ReadSharedReq_mshr_misses::total          386                       # number of ReadSharedReq MSHR misses
system.l2.ReadSharedReq_mshr_miss_latency::.cpu.data     35057000                       # number of ReadSharedReq MSHR miss cycles
system.l2.ReadSharedReq_mshr_miss_latency::total     35057000                       # number of ReadSharedReq MSHR miss cycles
system.l2.ReadSharedReq_mshr_miss_rate::.cpu.data     0.031270                       # mshr miss rate for ReadSharedReq accesses
system.l2.ReadSharedReq_mshr_miss_rate::total     0.031270                       # mshr miss rate for ReadSharedReq accesses
system.l2.ReadSharedReq_avg_mshr_miss_latency::.cpu.data 90821.243523                       # average ReadSharedReq mshr miss latency
system.l2.ReadSharedReq_avg_mshr_miss_latency::total 90821.243523                       # average ReadSharedReq mshr miss latency
system.l2.tags.pwrStateResidencyTicks::UNDEFINED 109052135000                       # Cumulative time (in ticks) in various power states
system.l2.tags.tagsinuse                 26105.050268                       # Cycle average of tags in use
system.l2.tags.total_refs                      100158                       # Total number of references to valid blocks.
system.l2.tags.sampled_refs                     38832                       # Sample count of references to valid blocks.
system.l2.tags.avg_refs                      2.579265                       # Average number of references to valid blocks.
system.l2.tags.warmup_cycle                     87000                       # Cycle when the warmup percentage was hit.
system.l2.tags.occ_blocks::.cpu.inst       350.389775                       # Average occupied blocks per requestor
system.l2.tags.occ_blocks::.cpu.data     25754.660493                       # Average occupied blocks per requestor
system.l2.tags.occ_percent::.cpu.inst        0.010693                       # Average percentage of cache occupancy
system.l2.tags.occ_percent::.cpu.data        0.785970                       # Average percentage of cache occupancy
system.l2.tags.occ_percent::total            0.796663                       # Average percentage of cache occupancy
system.l2.tags.occ_task_id_blocks::1024         32768                       # Occupied blocks per task id
system.l2.tags.age_task_id_blocks_1024::0            2                       # Occupied blocks per task id
system.l2.tags.age_task_id_blocks_1024::1           17                       # Occupied blocks per task id
system.l2.tags.age_task_id_blocks_1024::2          190                       # Occupied blocks per task id
system.l2.tags.age_task_id_blocks_1024::3         1871                       # Occupied blocks per task id
system.l2.tags.age_task_id_blocks_1024::4        30688                       # Occupied blocks per task id
system.l2.tags.occ_task_id_percent::1024            1                       # Percentage of cache occupancy per task id
system.l2.tags.tag_accesses                   1641392                       # Number of tag accesses
system.l2.tags.data_accesses                  1641392                       # Number of data accesses
system.cpu_voltage_domain.voltage                   1                       # Voltage in Volts
system.mem_ctrls.pwrStateResidencyTicks::UNDEFINED 109052135000                       # Cumulative time (in ticks) in various power states
system.mem_ctrls.bytes_read::.cpu.inst          32384                       # Number of bytes read from this memory
system.mem_ctrls.bytes_read::.cpu.data        2452864                       # Number of bytes read from this memory
system.mem_ctrls.bytes_read::total            2485248                       # Number of bytes read from this memory
system.mem_ctrls.bytes_inst_read::.cpu.inst        32384                       # Number of instructions bytes read from this memory
system.mem_ctrls.bytes_inst_read::total         32384                       # Number of instructions bytes read from this memory
system.mem_ctrls.bytes_written::.writebacks       350784                       # Number of bytes written to this memory
system.mem_ctrls.bytes_written::total          350784                       # Number of bytes written to this memory
system.mem_ctrls.num_reads::.cpu.inst             506                       # Number of read requests responded to by this memory
system.mem_ctrls.num_reads::.cpu.data           38326                       # Number of read requests responded to by this memory
system.mem_ctrls.num_reads::total               38832                       # Number of read requests responded to by this memory
system.mem_ctrls.num_writes::.writebacks         5481                       # Number of write requests responded to by this memory
system.mem_ctrls.num_writes::total               5481                       # Number of write requests responded to by this memory
system.mem_ctrls.bw_read::.cpu.inst            296959                       # Total read bandwidth from this memory (bytes/s)
system.mem_ctrls.bw_read::.cpu.data          22492581                       # Total read bandwidth from this memory (bytes/s)
system.mem_ctrls.bw_read::total              22789540                       # Total read bandwidth from this memory (bytes/s)
system.mem_ctrls.bw_inst_read::.cpu.inst       296959                       # Instruction read bandwidth from this memory (bytes/s)
system.mem_ctrls.bw_inst_read::total           296959                       # Instruction read bandwidth from this memory (bytes/s)
system.mem_ctrls.bw_write::.writebacks        3216663                       # Write bandwidth from this memory (bytes/s)
system.mem_ctrls.bw_write::total              3216663                       # Write bandwidth from this memory (bytes/s)
system.mem_ctrls.bw_total::.writebacks        3216663                       # Total bandwidth to/from this memory (bytes/s)
system.mem_ctrls.bw_total::.cpu.inst           296959                       # Total bandwidth to/from this memory (bytes/s)
system.mem_ctrls.bw_total::.cpu.data         22492581                       # Total bandwidth to/from this memory (bytes/s)
system.mem_ctrls.bw_total::total             26006203                       # Total bandwidth to/from this memory (bytes/s)
system.mem_ctrls.avgPriority_.writebacks::samples      5481.00                       # Average QoS priority value for accepted requests
system.mem_ctrls.avgPriority_.cpu.inst::samples       506.00                       # Average QoS priority value for accepted requests
system.mem_ctrls.avgPriority_.cpu.data::samples     38325.00                       # Average QoS priority value for accepted requests
system.mem_ctrls.priorityMinLatency      0.000000018750                       # per QoS priority minimum request to response latency (s)
system.mem_ctrls.priorityMaxLatency      0.020241538500                       # per QoS priority maximum request to response latency (s)
system.mem_ctrls.numReadWriteTurnArounds          303                       # Number of turnarounds from READ to WRITE
system.mem_ctrls.numWriteReadTurnArounds          303                       # Number of turnarounds from WRITE to READ
system.mem_ctrls.numStayReadState              111136                       # Number of times bus staying in READ state
system.mem_ctrls.numStayWriteState               5167                       # Number of times bus staying in WRITE state
system.mem_ctrls.readReqs                       38832                       # Number of read requests accepted
system.mem_ctrls.writeReqs                       5481                       # Number of write requests accepted
system.mem_ctrls.readBursts                     38832                       # Number of DRAM read bursts, including those serviced by the write queue
system.mem_ctrls.writeBursts                     5481                       # Number of DRAM write bursts, including those merged in the write queue
system.mem_ctrls.servicedByWrQ                      1                       # Number of DRAM read bursts serviced by the write queue
system.mem_ctrls.mergedWrBursts                     0                       # Number of DRAM write bursts merged with an existing one
system.mem_ctrls.neitherReadNorWriteReqs            0                       # Number of requests that are neither read nor write
system.mem_ctrls.perBankRdBursts::0              2374                       # Per bank write bursts
system.mem_ctrls.perBankRdBursts::1              2356                       # Per bank write bursts
system.mem_ctrls.perBankRdBursts::2              2524                       # Per bank write bursts
system.mem_ctrls.perBankRdBursts::3              2677                       # Per bank write bursts
system.mem_ctrls.perBankRdBursts::4              2529                       # Per bank write bursts
system.mem_ctrls.perBankRdBursts::5              2494                       # Per bank write bursts
system.mem_ctrls.perBankRdBursts::6              2470                       # Per bank write bursts
system.mem_ctrls.perBankRdBursts::7              2513                       # Per bank write bursts
system.mem_ctrls.perBankRdBursts::8              2480                       # Per bank write bursts
system.mem_ctrls.perBankRdBursts::9              2336                       # Per bank write bursts
system.mem_ctrls.perBankRdBursts::10             2383                       # Per bank write bursts
system.mem_ctrls.perBankRdBursts::11             2335                       # Per bank write bursts
system.mem_ctrls.perBankRdBursts::12             2315                       # Per bank write bursts
system.mem_ctrls.perBankRdBursts::13             2358                       # Per bank write bursts
system.mem_ctrls.perBankRdBursts::14             2334                       # Per bank write bursts
system.mem_ctrls.perBankRdBursts::15             2353                       # Per bank write bursts
system.mem_ctrls.perBankWrBursts::0               282                       # Per bank write bursts
system.mem_ctrls.perBankWrBursts::1               275                       # Per bank write bursts
system.mem_ctrls.perBankWrBursts::2               462                       # Per bank write bursts
system.mem_ctrls.perBankWrBursts::3               587                       # Per bank write bursts
system.mem_ctrls.perBankWrBursts::4               401                       # Per bank write bursts
system.mem_ctrls.perBankWrBursts::5               393                       # Per bank write bursts
system.mem_ctrls.perBankWrBursts::6               391                       # Per bank write bursts
system.mem_ctrls.perBankWrBursts::7               396                       # Per bank write bursts
system.mem_ctrls.perBankWrBursts::8               361                       # Per bank write bursts
system.mem_ctrls.perBankWrBursts::9               266                       # Per bank write bursts
system.mem_ctrls.perBankWrBursts::10              266                       # Per bank write bursts
system.mem_ctrls.perBankWrBursts::11              269                       # Per bank write bursts
system.mem_ctrls.perBankWrBursts::12              267                       # Per bank write bursts
system.mem_ctrls.perBankWrBursts::13              290                       # Per bank write bursts
system.mem_ctrls.perBankWrBursts::14              276                       # Per bank write bursts
system.mem_ctrls.perBankWrBursts::15              277                       # Per bank write bursts
system.mem_ctrls.avgRdQLen                       1.00                       # Average read queue length when enqueuing
system.mem_ctrls.avgWrQLen                       9.96                       # Average write queue length when enqueuing
system.mem_ctrls.totQLat                    672107000                       # Total ticks spent queuing
system.mem_ctrls.totBusLat                  194155000                       # Total ticks spent in databus transfers
system.mem_ctrls.totMemAccLat              1400188250                       # Total ticks spent from burst creation until serviced by the DRAM
system.mem_ctrls.avgQLat                     17308.52                       # Average queueing delay per DRAM burst
system.mem_ctrls.avgBusLat                    5000.00                       # Average bus latency per DRAM burst
system.mem_ctrls.avgMemAccLat                36058.52                       # Average memory access latency per DRAM burst
system.mem_ctrls.numRdRetry                         0                       # Number of times read queue was full causing retry
system.mem_ctrls.numWrRetry                         0                       # Number of times write queue was full causing retry
system.mem_ctrls.readRowHits                    19732                       # Number of row buffer hits during reads
system.mem_ctrls.writeRowHits                    4645                       # Number of row buffer hits during writes
system.mem_ctrls.readRowHitRate                 50.82                       # Row buffer hit rate for reads
system.mem_ctrls.writeRowHitRate                84.75                       # Row buffer hit rate for writes
system.mem_ctrls.readPktSize::0                     0                       # Read request sizes (log2)
system.mem_ctrls.readPktSize::1                     0                       # Read request sizes (log2)
system.mem_ctrls.readPktSize::2                     0                       # Read request sizes (log2)
system.mem_ctrls.readPktSize::3                     0                       # Read request sizes (log2)
system.mem_ctrls.readPktSize::4                     0                       # Read request sizes (log2)
system.mem_ctrls.readPktSize::5                     0                       # Read request sizes (log2)
system.mem_ctrls.readPktSize::6                 38832                       # Read request sizes (log2)
system.mem_ctrls.writePktSize::0                    0                       # Write request sizes (log2)
system.mem_ctrls.writePktSize::1                    0                       # Write request sizes (log2)
system.mem_ctrls.writePktSize::2                    0                       # Write request sizes (log2)
system.mem_ctrls.writePktSize::3                    0                       # Write request sizes (log2)
system.mem_ctrls.writePktSize::4                    0                       # Write request sizes (log2)
system.mem_ctrls.writePktSize::5                    0                       # Write request sizes (log2)
system.mem_ctrls.writePktSize::6                 5481                       # Write request sizes (log2)
system.mem_ctrls.rdQLenPdf::0                   38709                       # What read queue length does an incoming req see
system.mem_ctrls.rdQLenPdf::1                     115                       # What read queue length does an incoming req see
system.mem_ctrls.rdQLenPdf::2                       7                       # What read queue length does an incoming req see
system.mem_ctrls.rdQLenPdf::3                       0                       # What read queue length does an incoming req see
system.mem_ctrls.rdQLenPdf::4                       0                       # What read queue length does an incoming req see
system.mem_ctrls.rdQLenPdf::5                       0                       # What read queue length does an incoming req see
system.mem_ctrls.rdQLenPdf::6                       0                       # What read queue length does an incoming req see
system.mem_ctrls.rdQLenPdf::7                       0                       # What read queue length does an incoming req see
system.mem_ctrls.rdQLenPdf::8                       0                       # What read queue length does an incoming req see
system.mem_ctrls.rdQLenPdf::9                       0                       # What read queue length does an incoming req see
system.mem_ctrls.rdQLenPdf::10                      0                       # What read queue length does an incoming req see
system.mem_ctrls.rdQLenPdf::11                      0                       # What read queue length does an incoming req see
system.mem_ctrls.rdQLenPdf::12                      0                       # What read queue length does an incoming req see
system.mem_ctrls.rdQLenPdf::13                      0                       # What read queue length does an incoming req see
system.mem_ctrls.rdQLenPdf::14                      0                       # What read queue length does an incoming req see
system.mem_ctrls.rdQLenPdf::15                      0                       # What read queue length does an incoming req see
system.mem_ctrls.rdQLenPdf::16                      0                       # What read queue length does an incoming req see
system.mem_ctrls.rdQLenPdf::17                      0                       # What read queue length does an incoming req see
system.mem_ctrls.rdQLenPdf::18                      0                       # What read queue length does an incoming req see
system.mem_ctrls.rdQLenPdf::19                      0                       # What read queue length does an incoming req see
system.mem_ctrls.rdQLenPdf::20                      0                       # What read queue length does an incoming req see
system.mem_ctrls.rdQLenPdf::21                      0                       # What read queue length does an incoming req see
system.mem_ctrls.rdQLenPdf::22                      0                       # What read queue length does an incoming req see
system.mem_ctrls.rdQLenPdf::23                      0                       # What read queue length does an incoming req see
system.mem_ctrls.rdQLenPdf::24                      0                       # What read queue length does an incoming req see
system.mem_ctrls.rdQLenPdf::25                      0                       # What read queue length does an incoming req see
system.mem_ctrls.rdQLenPdf::26                      0                       # What read queue length does an incoming req see
system.mem_ctrls.rdQLenPdf::27                      0                       # What read queue length does an incoming req see
system.mem_ctrls.rdQLenPdf::28                      0                       # What read queue length does an incoming req see
system.mem_ctrls.rdQLenPdf::29                      0                       # What read queue length does an incoming req see
system.mem_ctrls.rdQLenPdf::30                      0                       # What read queue length does an incoming req see
system.mem_ctrls.rdQLenPdf::31                      0                       # What read queue length does an incoming req see
system.mem_ctrls.wrQLenPdf::0                       1                       # What write queue length does an incoming req see
system.mem_ctrls.wrQLenPdf::1                       1                       # What write queue length does an incoming req see
system.mem_ctrls.wrQLenPdf::2                       1                       # What write queue length does an incoming req see
system.mem_ctrls.wrQLenPdf::3                       1                       # What write queue length does an incoming req see
system.mem_ctrls.wrQLenPdf::4                       1                       # What write queue length does an incoming req see
system.mem_ctrls.wrQLenPdf::5                       1                       # What write queue length does an incoming req see
system.mem_ctrls.wrQLenPdf::6                       1                       # What write queue length does an incoming req see
system.mem_ctrls.wrQLenPdf::7                       1                       # What write queue length does an incoming req see
system.mem_ctrls.wrQLenPdf::8                       1                       # What write queue length does an incoming req see
system.mem_ctrls.wrQLenPdf::9                       1                       # What write queue length does an incoming req see
system.mem_ctrls.wrQLenPdf::10                      1                       # What write queue length does an incoming req see
system.mem_ctrls.wrQLenPdf::11                      1                       # What write queue length does an incoming req see
system.mem_ctrls.wrQLenPdf::12                      1                       # What write queue length does an incoming req see
system.mem_ctrls.wrQLenPdf::13                      1                       # What write queue length does an incoming req see
system.mem_ctrls.wrQLenPdf::14                      1                       # What write queue length does an incoming req see
system.mem_ctrls.wrQLenPdf::15                    304                       # What write queue length does an incoming req see
system.mem_ctrls.wrQLenPdf::16                    304                       # What write queue length does an incoming req see
system.mem_ctrls.wrQLenPdf::17                    304                       # What write queue length does an incoming req see
system.mem_ctrls.wrQLenPdf::18                    304                       # What write queue length does an incoming req see
system.mem_ctrls.wrQLenPdf::19                    304                       # What write queue length does an incoming req see
system.mem_ctrls.wrQLenPdf::20                    304                       # What write queue length does an incoming req see
system.mem_ctrls.wrQLenPdf::21                    304                       # What write queue length does an incoming req see
system.mem_ctrls.wrQLenPdf::22                    303                       # What write queue length does an incoming req see
system.mem_ctrls.wrQLenPdf::23                    304                       # What write queue length does an incoming req see
system.mem_ctrls.wrQLenPdf::24                    303                       # What write queue length does an incoming req see
system.mem_ctrls.wrQLenPdf::25                    304                       # What write queue length does an incoming req see
system.mem_ctrls.wrQLenPdf::26                    303                       # What write queue length does an incoming req see
system.mem_ctrls.wrQLenPdf::27                    303                       # What write queue length does an incoming req see
system.mem_ctrls.wrQLenPdf::28                    304                       # What write queue length does an incoming req see
system.mem_ctrls.wrQLenPdf::29                    303                       # What write queue length does an incoming req see
system.mem_ctrls.wrQLenPdf::30                    304                       # What write queue length does an incoming req see
system.mem_ctrls.wrQLenPdf::31                    303                       # What write queue length does an incoming req see
system.mem_ctrls.wrQLenPdf::32                    303                       # What write queue length does an incoming req see
system.mem_ctrls.wrQLenPdf::33                      1                       # What write queue length does an incoming req see
system.mem_ctrls.wrQLenPdf::34                      0                       # What write queue length does an incoming req see
system.mem_ctrls.wrQLenPdf::35                      0                       # What write queue length does an incoming req see
system.mem_ctrls.wrQLenPdf::36                      0                       # What write queue length does an incoming req see
system.mem_ctrls.wrQLenPdf::37                      0                       # What write queue length does an incoming req see
system.mem_ctrls.wrQLenPdf::38                      0                       # What write queue length does an incoming req see
system.mem_ctrls.wrQLenPdf::39                      0                       # What write queue length does an incoming req see
system.mem_ctrls.wrQLenPdf::40                      0                       # What write queue length does an incoming req see
system.mem_ctrls.wrQLenPdf::41                      0                       # What write queue length does an incoming req see
system.mem_ctrls.wrQLenPdf::42                      0                       # What write queue length does an incoming req see
system.mem_ctrls.wrQLenPdf::43                      0                       # What write queue length does an incoming req see
system.mem_ctrls.wrQLenPdf::44                      0                       # What write queue length does an incoming req see
system.mem_ctrls.wrQLenPdf::45                      0                       # What write queue length does an incoming req see
system.mem_ctrls.wrQLenPdf::46                      0                       # What write queue length does an incoming req see
system.mem_ctrls.wrQLenPdf::47                      0                       # What write queue length does an incoming req see
system.mem_ctrls.wrQLenPdf::48                      0                       # What write queue length does an incoming req see
system.mem_ctrls.wrQLenPdf::49                      0                       # What write queue length does an incoming req see
system.mem_ctrls.wrQLenPdf::50                      0                       # What write queue length does an incoming req see
system.mem_ctrls.wrQLenPdf::51                      0                       # What write queue length does an incoming req see
system.mem_ctrls.wrQLenPdf::52                      0                       # What write queue length does an incoming req see
system.mem_ctrls.wrQLenPdf::53                      0                       # What write queue length does an incoming req see
system.mem_ctrls.wrQLenPdf::54                      0                       # What write queue length does an incoming req see
system.mem_ctrls.wrQLenPdf::55                      0                       # What write queue length does an incoming req see
system.mem_ctrls.wrQLenPdf::56                      0                       # What write queue length does an incoming req see
system.mem_ctrls.wrQLenPdf::57                      0                       # What write queue length does an incoming req see
system.mem_ctrls.wrQLenPdf::58                      0                       # What write queue length does an incoming req see
system.mem_ctrls.wrQLenPdf::59                      0                       # What write queue length does an incoming req see
system.mem_ctrls.wrQLenPdf::60                      0                       # What write queue length does an incoming req see
system.mem_ctrls.wrQLenPdf::61                      0                       # What write queue length does an incoming req see
system.mem_ctrls.wrQLenPdf::62                      0                       # What write queue length does an incoming req see
system.mem_ctrls.wrQLenPdf::63                      0                       # What write queue length does an incoming req see
system.mem_ctrls.bytesPerActivate::samples        19912                       # Bytes accessed per row activation
system.mem_ctrls.bytesPerActivate::mean    142.351145                       # Bytes accessed per row activation
system.mem_ctrls.bytesPerActivate::gmean   116.405523                       # Bytes accessed per row activation
system.mem_ctrls.bytesPerActivate::stdev   122.923413                       # Bytes accessed per row activation
system.mem_ctrls.bytesPerActivate::0-127         7645     38.39%     38.39% # Bytes accessed per row activation
system.mem_ctrls.bytesPerActivate::128-255         9738     48.91%     87.30% # Bytes accessed per row activation
system.mem_ctrls.bytesPerActivate::256-383         1772      8.90%     96.20% # Bytes accessed per row activation
system.mem_ctrls.bytesPerActivate::384-511          423      2.12%     98.32% # Bytes accessed per row activation
system.mem_ctrls.bytesPerActivate::512-639           54      0.27%     98.59% # Bytes accessed per row activation
system.mem_ctrls.bytesPerActivate::640-767           43      0.22%     98.81% # Bytes accessed per row activation
system.mem_ctrls.bytesPerActivate::768-895           41      0.21%     99.02% # Bytes accessed per row activation
system.mem_ctrls.bytesPerActivate::896-1023           38      0.19%     99.21% # Bytes accessed per row activation
system.mem_ctrls.bytesPerActivate::1024-1151          158      0.79%    100.00% # Bytes accessed per row activation
system.mem_ctrls.bytesPerActivate::total        19912                       # Bytes accessed per row activation
system.mem_ctrls.rdPerTurnAround::samples          303                       # Reads before turning the bus around for writes
system.mem_ctrls.rdPerTurnAround::mean     128.132013                       # Reads before turning the bus around for writes
system.mem_ctrls.rdPerTurnAround::gmean     19.735499                       # Reads before turning the bus around for writes
system.mem_ctrls.rdPerTurnAround::stdev   1711.937496                       # Reads before turning the bus around for writes
system.mem_ctrls.rdPerTurnAround::0-1023          300     99.01%     99.01% # Reads before turning the bus around for writes
system.mem_ctrls.rdPerTurnAround::1024-2047            2      0.66%     99.67% # Reads before turning the bus around for writes
system.mem_ctrls.rdPerTurnAround::29696-30719            1      0.33%    100.00% # Reads before turning the bus around for writes
system.mem_ctrls.rdPerTurnAround::total           303                       # Reads before turning the bus around for writes
system.mem_ctrls.wrPerTurnAround::samples          303                       # Writes before turning the bus around for reads
system.mem_ctrls.wrPerTurnAround::mean      18.016502                       # Writes before turning the bus around for reads
system.mem_ctrls.wrPerTurnAround::gmean     18.016067                       # Writes before turning the bus around for reads
[...]
system.cpu.icache.ReadReq_avg_miss_latency::total 98062.618596                       # average ReadReq miss latency
system.cpu.icache.ReadReq_mshr_misses::.cpu.inst          527                       # number of ReadReq MSHR misses
system.cpu.icache.ReadReq_mshr_misses::total          527                       # number of ReadReq MSHR misses
system.cpu.icache.ReadReq_mshr_miss_latency::.cpu.inst     50625000                       # number of ReadReq MSHR miss cycles
system.cpu.icache.ReadReq_mshr_miss_latency::total     50625000                       # number of ReadReq MSHR miss cycles
system.cpu.icache.ReadReq_mshr_miss_rate::.cpu.inst     0.000020                       # mshr miss rate for ReadReq accesses
system.cpu.icache.ReadReq_mshr_miss_rate::total     0.000020                       # mshr miss rate for ReadReq accesses
system.cpu.icache.ReadReq_avg_mshr_miss_latency::.cpu.inst 96062.618596                       # average ReadReq mshr miss latency
system.cpu.icache.ReadReq_avg_mshr_miss_latency::total 96062.618596                       # average ReadReq mshr miss latency
system.cpu.icache.tags.pwrStateResidencyTicks::UNDEFINED 109052135000                       # Cumulative time (in ticks) in various power states
system.cpu.icache.tags.tagsinuse           436.334485                       # Cycle average of tags in use
system.cpu.icache.tags.total_refs            27001939                       # Total number of references to valid blocks.
system.cpu.icache.tags.sampled_refs               527                       # Sample count of references to valid blocks.
system.cpu.icache.tags.avg_refs          51237.075901                       # Average number of references to valid blocks.
system.cpu.icache.tags.warmup_cycle            108000                       # Cycle when the warmup percentage was hit.
system.cpu.icache.tags.occ_blocks::.cpu.inst   436.334485                       # Average occupied blocks per requestor
system.cpu.icache.tags.occ_percent::.cpu.inst     0.852216                       # Average percentage of cache occupancy
system.cpu.icache.tags.occ_percent::total     0.852216                       # Average percentage of cache occupancy
system.cpu.icache.tags.occ_task_id_blocks::1024          437                       # Occupied blocks per task id
system.cpu.icache.tags.age_task_id_blocks_1024::4          437                       # Occupied blocks per task id
system.cpu.icache.tags.occ_task_id_percent::1024     0.853516                       # Percentage of cache occupancy per task id
system.cpu.icache.tags.tag_accesses         108008283                       # Number of tag accesses
system.cpu.icache.tags.data_accesses        108008283                       # Number of data accesses
system.cpu.dtb.walker.pwrStateResidencyTicks::UNDEFINED 109052135000                       # Cumulative time (in ticks) in various power states
system.cpu.dtb.stage2_mmu.stage2_tlb.walker.pwrStateResidencyTicks::UNDEFINED 109052135000                       # Cumulative time (in ticks) in various power states
system.cpu.dcache.pwrStateResidencyTicks::UNDEFINED 109052135000                       # Cumulative time (in ticks) in various power states
system.cpu.dcache.demand_hits::.cpu.data     35102017                       # number of demand (read+write) hits
system.cpu.dcache.demand_hits::total         35102017                       # number of demand (read+write) hits
system.cpu.dcache.overall_hits::.cpu.data     35105116                       # number of overall hits
system.cpu.dcache.overall_hits::total        35105116                       # number of overall hits
system.cpu.dcache.demand_misses::.cpu.data        68614                       # number of demand (read+write) misses
system.cpu.dcache.demand_misses::total          68614                       # number of demand (read+write) misses
system.cpu.dcache.overall_misses::.cpu.data        68644                       # number of overall misses
system.cpu.dcache.overall_misses::total         68644                       # number of overall misses
system.cpu.dcache.demand_miss_latency::.cpu.data   5889810000                       # number of demand (read+write) miss cycles
system.cpu.dcache.demand_miss_latency::total   5889810000                       # number of demand (read+write) miss cycles
system.cpu.dcache.overall_miss_latency::.cpu.data   5889810000                       # number of overall miss cycles
system.cpu.dcache.overall_miss_latency::total   5889810000                       # number of overall miss cycles
system.cpu.dcache.demand_accesses::.cpu.data     35170631                       # number of demand (read+write) accesses
system.cpu.dcache.demand_accesses::total     35170631                       # number of demand (read+write) accesses
system.cpu.dcache.overall_accesses::.cpu.data     35173760                       # number of overall (read+write) accesses
system.cpu.dcache.overall_accesses::total     35173760                       # number of overall (read+write) accesses
system.cpu.dcache.demand_miss_rate::.cpu.data     0.001951                       # miss rate for demand accesses
system.cpu.dcache.demand_miss_rate::total     0.001951                       # miss rate for demand accesses
system.cpu.dcache.overall_miss_rate::.cpu.data     0.001952                       # miss rate for overall accesses
system.cpu.dcache.overall_miss_rate::total     0.001952                       # miss rate for overall accesses
system.cpu.dcache.demand_avg_miss_latency::.cpu.data 85839.770309                       # average overall miss latency
system.cpu.dcache.demand_avg_miss_latency::total 85839.770309                       # average overall miss latency
system.cpu.dcache.overall_avg_miss_latency::.cpu.data 85802.255113                       # average overall miss latency
system.cpu.dcache.overall_avg_miss_latency::total 85802.255113                       # average overall miss latency
system.cpu.dcache.blocked_cycles::no_mshrs            0                       # number of cycles access was blocked
system.cpu.dcache.blocked_cycles::no_targets            0                       # number of cycles access was blocked
system.cpu.dcache.blocked::no_mshrs                 0                       # number of cycles access was blocked
system.cpu.dcache.blocked::no_targets               0                       # number of cycles access was blocked
system.cpu.dcache.avg_blocked_cycles::no_mshrs          nan                       # average number of cycles each access was blocked
system.cpu.dcache.avg_blocked_cycles::no_targets          nan                       # average number of cycles each access was blocked
system.cpu.dcache.writebacks::.writebacks        47467                       # number of writebacks
system.cpu.dcache.writebacks::total             47467                       # number of writebacks
system.cpu.dcache.demand_mshr_hits::.cpu.data        18349                       # number of demand (read+write) MSHR hits
system.cpu.dcache.demand_mshr_hits::total        18349                       # number of demand (read+write) MSHR hits
system.cpu.dcache.overall_mshr_hits::.cpu.data        18349                       # number of overall MSHR hits
system.cpu.dcache.overall_mshr_hits::total        18349                       # number of overall MSHR hits
system.cpu.dcache.demand_mshr_misses::.cpu.data        50265                       # number of demand (read+write) MSHR misses
system.cpu.dcache.demand_mshr_misses::total        50265                       # number of demand (read+write) MSHR misses
system.cpu.dcache.overall_mshr_misses::.cpu.data        50291                       # number of overall MSHR misses
system.cpu.dcache.overall_mshr_misses::total        50291                       # number of overall MSHR misses
system.cpu.dcache.demand_mshr_miss_latency::.cpu.data   4523453000                       # number of demand (read+write) MSHR miss cycles
system.cpu.dcache.demand_mshr_miss_latency::total   4523453000                       # number of demand (read+write) MSHR miss cycles
system.cpu.dcache.overall_mshr_miss_latency::.cpu.data   4525426000                       # number of overall MSHR miss cycles
system.cpu.dcache.overall_mshr_miss_latency::total   4525426000                       # number of overall MSHR miss cycles
system.cpu.dcache.demand_mshr_miss_rate::.cpu.data     0.001429                       # mshr miss rate for demand accesses
system.cpu.dcache.demand_mshr_miss_rate::total     0.001429                       # mshr miss rate for demand accesses
system.cpu.dcache.overall_mshr_miss_rate::.cpu.data     0.001430                       # mshr miss rate for overall accesses
system.cpu.dcache.overall_mshr_miss_rate::total     0.001430                       # mshr miss rate for overall accesses
system.cpu.dcache.demand_avg_mshr_miss_latency::.cpu.data 89992.101860                       # average overall mshr miss latency
system.cpu.dcache.demand_avg_mshr_miss_latency::total 89992.101860                       # average overall mshr miss latency
system.cpu.dcache.overall_avg_mshr_miss_latency::.cpu.data 89984.808415                       # average overall mshr miss latency
system.cpu.dcache.overall_avg_mshr_miss_latency::total 89984.808415                       # average overall mshr miss latency
system.cpu.dcache.replacements                  49267                       # number of replacements
system.cpu.dcache.ReadReq_hits::.cpu.data     20889498                       # number of ReadReq hits
system.cpu.dcache.ReadReq_hits::total        20889498                       # number of ReadReq hits
system.cpu.dcache.ReadReq_misses::.cpu.data        14147                       # number of ReadReq misses
system.cpu.dcache.ReadReq_misses::total         14147                       # number of ReadReq misses
system.cpu.dcache.ReadReq_miss_latency::.cpu.data    415823000                       # number of ReadReq miss cycles
system.cpu.dcache.ReadReq_miss_latency::total    415823000                       # number of ReadReq miss cycles
system.cpu.dcache.ReadReq_accesses::.cpu.data     20903645                       # number of ReadReq accesses(hits+misses)
system.cpu.dcache.ReadReq_accesses::total     20903645                       # number of ReadReq accesses(hits+misses)
system.cpu.dcache.ReadReq_miss_rate::.cpu.data     0.000677                       # miss rate for ReadReq accesses
system.cpu.dcache.ReadReq_miss_rate::total     0.000677                       # miss rate for ReadReq accesses
system.cpu.dcache.ReadReq_avg_miss_latency::.cpu.data 29393.016187                       # average ReadReq miss latency
system.cpu.dcache.ReadReq_avg_miss_latency::total 29393.016187                       # average ReadReq miss latency
system.cpu.dcache.ReadReq_mshr_hits::.cpu.data         1829                       # number of ReadReq MSHR hits
system.cpu.dcache.ReadReq_mshr_hits::total         1829                       # number of ReadReq MSHR hits
system.cpu.dcache.ReadReq_mshr_misses::.cpu.data        12318                       # number of ReadReq MSHR misses
system.cpu.dcache.ReadReq_mshr_misses::total        12318                       # number of ReadReq MSHR misses
system.cpu.dcache.ReadReq_mshr_miss_latency::.cpu.data    329039000                       # number of ReadReq MSHR miss cycles
system.cpu.dcache.ReadReq_mshr_miss_latency::total    329039000                       # number of ReadReq MSHR miss cycles
system.cpu.dcache.ReadReq_mshr_miss_rate::.cpu.data     0.000589                       # mshr miss rate for ReadReq accesses
system.cpu.dcache.ReadReq_mshr_miss_rate::total     0.000589                       # mshr miss rate for ReadReq accesses
system.cpu.dcache.ReadReq_avg_mshr_miss_latency::.cpu.data 26712.047410                       # average ReadReq mshr miss latency
system.cpu.dcache.ReadReq_avg_mshr_miss_latency::total 26712.047410                       # average ReadReq mshr miss latency
system.cpu.dcache.WriteReq_hits::.cpu.data     14212519                       # number of WriteReq hits
system.cpu.dcache.WriteReq_hits::total       14212519                       # number of WriteReq hits
system.cpu.dcache.WriteReq_misses::.cpu.data        54467                       # number of WriteReq misses
system.cpu.dcache.WriteReq_misses::total        54467                       # number of WriteReq misses
system.cpu.dcache.WriteReq_miss_latency::.cpu.data   5473987000                       # number of WriteReq miss cycles
system.cpu.dcache.WriteReq_miss_latency::total   5473987000                       # number of WriteReq miss cycles
system.cpu.dcache.WriteReq_accesses::.cpu.data     14266986                       # number of WriteReq accesses(hits+misses)
system.cpu.dcache.WriteReq_accesses::total     14266986                       # number of WriteReq accesses(hits+misses)
system.cpu.dcache.WriteReq_miss_rate::.cpu.data     0.003818                       # miss rate for WriteReq accesses
system.cpu.dcache.WriteReq_miss_rate::total     0.003818                       # miss rate for WriteReq accesses
system.cpu.dcache.WriteReq_avg_miss_latency::.cpu.data 100500.982246                       # average WriteReq miss latency
system.cpu.dcache.WriteReq_avg_miss_latency::total 100500.982246                       # average WriteReq miss latency
system.cpu.dcache.WriteReq_mshr_hits::.cpu.data        16520                       # number of WriteReq MSHR hits
system.cpu.dcache.WriteReq_mshr_hits::total        16520                       # number of WriteReq MSHR hits
system.cpu.dcache.WriteReq_mshr_misses::.cpu.data        37947                       # number of WriteReq MSHR misses
system.cpu.dcache.WriteReq_mshr_misses::total        37947                       # number of WriteReq MSHR misses
system.cpu.dcache.WriteReq_mshr_miss_latency::.cpu.data   4194414000                       # number of WriteReq MSHR miss cycles
system.cpu.dcache.WriteReq_mshr_miss_latency::total   4194414000                       # number of WriteReq MSHR miss cycles
system.cpu.dcache.WriteReq_mshr_miss_rate::.cpu.data     0.002660                       # mshr miss rate for WriteReq accesses
system.cpu.dcache.WriteReq_mshr_miss_rate::total     0.002660                       # mshr miss rate for WriteReq accesses
system.cpu.dcache.WriteReq_avg_mshr_miss_latency::.cpu.data 110533.480908                       # average WriteReq mshr miss latency
system.cpu.dcache.WriteReq_avg_mshr_miss_latency::total 110533.480908                       # average WriteReq mshr miss latency
system.cpu.dcache.SoftPFReq_hits::.cpu.data         3099                       # number of SoftPFReq hits
system.cpu.dcache.SoftPFReq_hits::total          3099                       # number of SoftPFReq hits
system.cpu.dcache.SoftPFReq_misses::.cpu.data           30                       # number of SoftPFReq misses
system.cpu.dcache.SoftPFReq_misses::total           30                       # number of SoftPFReq misses
system.cpu.dcache.SoftPFReq_accesses::.cpu.data         3129                       # number of SoftPFReq accesses(hits+misses)
system.cpu.dcache.SoftPFReq_accesses::total         3129                       # number of SoftPFReq accesses(hits+misses)
system.cpu.dcache.SoftPFReq_miss_rate::.cpu.data     0.009588                       # miss rate for SoftPFReq accesses
system.cpu.dcache.SoftPFReq_miss_rate::total     0.009588                       # miss rate for SoftPFReq accesses
system.cpu.dcache.SoftPFReq_mshr_misses::.cpu.data           26                       # number of SoftPFReq MSHR misses
system.cpu.dcache.SoftPFReq_mshr_misses::total           26                       # number of SoftPFReq MSHR misses
system.cpu.dcache.SoftPFReq_mshr_miss_latency::.cpu.data      1973000                       # number of SoftPFReq MSHR miss cycles
system.cpu.dcache.SoftPFReq_mshr_miss_latency::total      1973000                       # number of SoftPFReq MSHR miss cycles
system.cpu.dcache.SoftPFReq_mshr_miss_rate::.cpu.data     0.008309                       # mshr miss rate for SoftPFReq accesses
system.cpu.dcache.SoftPFReq_mshr_miss_rate::total     0.008309                       # mshr miss rate for SoftPFReq accesses
system.cpu.dcache.SoftPFReq_avg_mshr_miss_latency::.cpu.data 75884.615385                       # average SoftPFReq mshr miss latency
system.cpu.dcache.SoftPFReq_avg_mshr_miss_latency::total 75884.615385                       # average SoftPFReq mshr miss latency
system.cpu.dcache.LoadLockedReq_hits::.cpu.data        85610                       # number of LoadLockedReq hits
system.cpu.dcache.LoadLockedReq_hits::total        85610                       # number of LoadLockedReq hits
system.cpu.dcache.LoadLockedReq_accesses::.cpu.data        85610                       # number of LoadLockedReq accesses(hits+misses)
system.cpu.dcache.LoadLockedReq_accesses::total        85610                       # number of LoadLockedReq accesses(hits+misses)
system.cpu.dcache.StoreCondReq_hits::.cpu.data        85610                       # number of StoreCondReq hits
system.cpu.dcache.StoreCondReq_hits::total        85610                       # number of StoreCondReq hits
system.cpu.dcache.StoreCondReq_accesses::.cpu.data        85610                       # number of StoreCondReq accesses(hits+misses)
system.cpu.dcache.StoreCondReq_accesses::total        85610                       # number of StoreCondReq accesses(hits+misses)
system.cpu.dcache.tags.pwrStateResidencyTicks::UNDEFINED 109052135000                       # Cumulative time (in ticks) in various power states
system.cpu.dcache.tags.tagsinuse          1020.959165                       # Cycle average of tags in use
system.cpu.dcache.tags.total_refs            35326627                       # Total number of references to valid blocks.
system.cpu.dcache.tags.sampled_refs             50291                       # Sample count of references to valid blocks.
system.cpu.dcache.tags.avg_refs            702.444314                       # Average number of references to valid blocks.
system.cpu.dcache.tags.warmup_cycle            223000                       # Cycle when the warmup percentage was hit.
system.cpu.dcache.tags.occ_blocks::.cpu.data  1020.959165                       # Average occupied blocks per requestor
system.cpu.dcache.tags.occ_percent::.cpu.data     0.997030                       # Average percentage of cache occupancy
system.cpu.dcache.tags.occ_percent::total     0.997030                       # Average percentage of cache occupancy
system.cpu.dcache.tags.occ_task_id_blocks::1024         1024                       # Occupied blocks per task id
system.cpu.dcache.tags.age_task_id_blocks_1024::0            3                       # Occupied blocks per task id
system.cpu.dcache.tags.age_task_id_blocks_1024::1           21                       # Occupied blocks per task id
system.cpu.dcache.tags.age_task_id_blocks_1024::2          233                       # Occupied blocks per task id
system.cpu.dcache.tags.age_task_id_blocks_1024::3          682                       # Occupied blocks per task id
system.cpu.dcache.tags.age_task_id_blocks_1024::4           85                       # Occupied blocks per task id
system.cpu.dcache.tags.occ_task_id_percent::1024            1                       # Percentage of cache occupancy per task id
system.cpu.dcache.tags.tag_accesses         141430211                       # Number of tag accesses
system.cpu.dcache.tags.data_accesses        141430211                       # Number of data accesses
system.cpu.itb.walker.pwrStateResidencyTicks::UNDEFINED 109052135000                       # Cumulative time (in ticks) in various power states
system.cpu.itb.stage2_mmu.stage2_tlb.walker.pwrStateResidencyTicks::UNDEFINED 109052135000                       # Cumulative time (in ticks) in various power states

---------- End Simulation Statistics   ----------
