
---------- Begin Simulation Statistics ----------
final_tick                               174681177500                       # Number of ticks from beginning of simulation (restored from checkpoints and never reset)
host_inst_rate                                 224729                       # Simulator instruction rate (inst/s)
host_mem_usage                                 742260                       # Number of bytes of host memory used
host_op_rate                                   224737                       # Simulator op (including micro ops) rate (op/s)
host_seconds                                   444.98                       # Real time elapsed on the host
host_tick_rate                              392558602                       # Simulator tick rate (ticks/s)
sim_freq                                 1000000000000                       # Frequency of simulated ticks
sim_insts                                   100000001                       # Number of instructions simulated
sim_ops                                     100003539                       # Number of ops (including micro ops) simulated
sim_seconds                                  0.174681                       # Number of seconds simulated
sim_ticks                                174681177500                       # Number of ticks simulated
system.clk_domain.clock                          1000                       # Clock period in ticks
system.cpu.branchPred.BTBCorrect                    0                       # Number of correct BTB predictions (this stat may not work properly.
system.cpu.branchPred.BTBHitPct             99.550537                       # BTB Hit Percentage
system.cpu.branchPred.BTBHits                  596909                       # Number of BTB hits
system.cpu.branchPred.BTBLookups               599604                       # Number of BTB lookups
system.cpu.branchPred.RASInCorrect                  7                       # Number of incorrect RAS predictions.
system.cpu.branchPred.condIncorrect               822                       # Number of conditional branches incorrect
system.cpu.branchPred.condPredicted            599823                       # Number of conditional branches predicted
system.cpu.branchPred.indirectHits                155                       # Number of indirect target hits.
system.cpu.branchPred.indirectLookups             358                       # Number of indirect predictor lookups.
system.cpu.branchPred.indirectMisses              203                       # Number of indirect misses.
system.cpu.branchPred.lookups                  601796                       # Number of BP lookups
system.cpu.branchPred.usedRAS                     562                       # Number of times the RAS was used to get a target.
system.cpu.branchPredindirectMispredicted          114                       # Number of mispredicted indirect branches.
system.cpu.committedInsts                   100000001                       # Number of instructions committed
system.cpu.committedOps                     100003539                       # Number of ops (including micro ops) committed
system.cpu.cpi                               3.493624                       # CPI: cycles per instruction
system.cpu.dcache.LoadLockedReq_accesses::.cpu.data           14                       # number of LoadLockedReq accesses(hits+misses)
system.cpu.dcache.LoadLockedReq_accesses::total           14                       # number of LoadLockedReq accesses(hits+misses)
system.cpu.dcache.LoadLockedReq_avg_miss_latency::.cpu.data       317500                       # average LoadLockedReq miss latency
system.cpu.dcache.LoadLockedReq_avg_miss_latency::total       317500                       # average LoadLockedReq miss latency
system.cpu.dcache.LoadLockedReq_avg_mshr_miss_latency::.cpu.data       316500                       # average LoadLockedReq mshr miss latency
system.cpu.dcache.LoadLockedReq_avg_mshr_miss_latency::total       316500                       # average LoadLockedReq mshr miss latency
system.cpu.dcache.LoadLockedReq_hits::.cpu.data           13                       # number of LoadLockedReq hits
system.cpu.dcache.LoadLockedReq_hits::total           13                       # number of LoadLockedReq hits
system.cpu.dcache.LoadLockedReq_miss_latency::.cpu.data       317500                       # number of LoadLockedReq miss cycles
system.cpu.dcache.LoadLockedReq_miss_latency::total       317500                       # number of LoadLockedReq miss cycles
system.cpu.dcache.LoadLockedReq_miss_rate::.cpu.data     0.071429                       # miss rate for LoadLockedReq accesses
system.cpu.dcache.LoadLockedReq_miss_rate::total     0.071429                       # miss rate for LoadLockedReq accesses
system.cpu.dcache.LoadLockedReq_misses::.cpu.data            1                       # number of LoadLockedReq misses
system.cpu.dcache.LoadLockedReq_misses::total            1                       # number of LoadLockedReq misses
system.cpu.dcache.LoadLockedReq_mshr_miss_latency::.cpu.data       316500                       # number of LoadLockedReq MSHR miss cycles
system.cpu.dcache.LoadLockedReq_mshr_miss_latency::total       316500                       # number of LoadLockedReq MSHR miss cycles
system.cpu.dcache.LoadLockedReq_mshr_miss_rate::.cpu.data     0.071429                       # mshr miss rate for LoadLockedReq accesses
system.cpu.dcache.LoadLockedReq_mshr_miss_rate::total     0.071429                       # mshr miss rate for LoadLockedReq accesses
system.cpu.dcache.LoadLockedReq_mshr_misses::.cpu.data            1                       # number of LoadLockedReq MSHR misses
system.cpu.dcache.LoadLockedReq_mshr_misses::total            1                       # number of LoadLockedReq MSHR misses
system.cpu.dcache.ReadReq_accesses::.cpu.data     35711022                       # number of ReadReq accesses(hits+misses)
system.cpu.dcache.ReadReq_accesses::total     35711022                       # number of ReadReq accesses(hits+misses)
system.cpu.dcache.ReadReq_avg_miss_latency::.cpu.data 71504.545455                       # average ReadReq miss latency
system.cpu.dcache.ReadReq_avg_miss_latency::total 71504.545455                       # average ReadReq miss latency
system.cpu.dcache.ReadReq_avg_mshr_miss_latency::.cpu.data 69825.242718                       # average ReadReq mshr miss latency
system.cpu.dcache.ReadReq_avg_mshr_miss_latency::total 69825.242718                       # average ReadReq mshr miss latency
system.cpu.dcache.ReadReq_hits::.cpu.data     35710912                       # number of ReadReq hits
system.cpu.dcache.ReadReq_hits::total        35710912                       # number of ReadReq hits
system.cpu.dcache.ReadReq_miss_latency::.cpu.data      7865500                       # number of ReadReq miss cycles
system.cpu.dcache.ReadReq_miss_latency::total      7865500                       # number of ReadReq miss cycles
system.cpu.dcache.ReadReq_miss_rate::.cpu.data     0.000003                       # miss rate for ReadReq accesses
system.cpu.dcache.ReadReq_miss_rate::total     0.000003                       # miss rate for ReadReq accesses
system.cpu.dcache.ReadReq_misses::.cpu.data          110                       # number of ReadReq misses
system.cpu.dcache.ReadReq_misses::total           110                       # number of ReadReq misses
system.cpu.dcache.ReadReq_mshr_hits::.cpu.data            7                       # number of ReadReq MSHR hits
system.cpu.dcache.ReadReq_mshr_hits::total            7                       # number of ReadReq MSHR hits
system.cpu.dcache.ReadReq_mshr_miss_latency::.cpu.data      7192000                       # number of ReadReq MSHR miss cycles
system.cpu.dcache.ReadReq_mshr_miss_latency::total      7192000                       # number of ReadReq MSHR miss cycles
system.cpu.dcache.ReadReq_mshr_miss_rate::.cpu.data     0.000003                       # mshr miss rate for ReadReq accesses
system.cpu.dcache.ReadReq_mshr_miss_rate::total     0.000003                       # mshr miss rate for ReadReq accesses
system.cpu.dcache.ReadReq_mshr_misses::.cpu.data          103                       # number of ReadReq MSHR misses
system.cpu.dcache.ReadReq_mshr_misses::total          103                       # number of ReadReq MSHR misses
system.cpu.dcache.SoftPFReq_accesses::.cpu.data           46                       # number of SoftPFReq accesses(hits+misses)
system.cpu.dcache.SoftPFReq_accesses::total           46                       # number of SoftPFReq accesses(hits+misses)
system.cpu.dcache.SoftPFReq_avg_mshr_miss_latency::.cpu.data        81950                       # average SoftPFReq mshr miss latency
system.cpu.dcache.SoftPFReq_avg_mshr_miss_latency::total        81950                       # average SoftPFReq mshr miss latency
system.cpu.dcache.SoftPFReq_hits::.cpu.data           30                       # number of SoftPFReq hits
system.cpu.dcache.SoftPFReq_hits::total            30                       # number of SoftPFReq hits
system.cpu.dcache.SoftPFReq_miss_rate::.cpu.data     0.347826                       # miss rate for SoftPFReq accesses
system.cpu.dcache.SoftPFReq_miss_rate::total     0.347826                       # miss rate for SoftPFReq accesses
system.cpu.dcache.SoftPFReq_misses::.cpu.data           16                       # number of SoftPFReq misses
system.cpu.dcache.SoftPFReq_misses::total           16                       # number of SoftPFReq misses
system.cpu.dcache.SoftPFReq_mshr_miss_latency::.cpu.data       819500                       # number of SoftPFReq MSHR miss cycles
system.cpu.dcache.SoftPFReq_mshr_miss_latency::total       819500                       # number of SoftPFReq MSHR miss cycles
system.cpu.dcache.SoftPFReq_mshr_miss_rate::.cpu.data     0.217391                       # mshr miss rate for SoftPFReq accesses
system.cpu.dcache.SoftPFReq_mshr_miss_rate::total     0.217391                       # mshr miss rate for SoftPFReq accesses
system.cpu.dcache.SoftPFReq_mshr_misses::.cpu.data           10                       # number of SoftPFReq MSHR misses
system.cpu.dcache.SoftPFReq_mshr_misses::total           10                       # number of SoftPFReq MSHR misses
system.cpu.dcache.StoreCondReq_accesses::.cpu.data           14                       # number of StoreCondReq accesses(hits+misses)
system.cpu.dcache.StoreCondReq_accesses::total           14                       # number of StoreCondReq accesses(hits+misses)
system.cpu.dcache.StoreCondReq_hits::.cpu.data           14                       # number of StoreCondReq hits
system.cpu.dcache.StoreCondReq_hits::total           14                       # number of StoreCondReq hits
system.cpu.dcache.WriteReq_accesses::.cpu.data     13095625                       # number of WriteReq accesses(hits+misses)
system.cpu.dcache.WriteReq_accesses::total     13095625                       # number of WriteReq accesses(hits+misses)
system.cpu.dcache.WriteReq_avg_miss_latency::.cpu.data 79721.434520                       # average WriteReq miss latency
system.cpu.dcache.WriteReq_avg_miss_latency::total 79721.434520                       # average WriteReq miss latency
system.cpu.dcache.WriteReq_avg_mshr_miss_latency::.cpu.data 81371.489138                       # average WriteReq mshr miss latency
system.cpu.dcache.WriteReq_avg_mshr_miss_latency::total 81371.489138                       # average WriteReq mshr miss latency
system.cpu.dcache.WriteReq_hits::.cpu.data     10119953                       # number of WriteReq hits
system.cpu.dcache.WriteReq_hits::total       10119953                       # number of WriteReq hits
system.cpu.dcache.WriteReq_miss_latency::.cpu.data 237224840500                       # number of WriteReq miss cycles
system.cpu.dcache.WriteReq_miss_latency::total 237224840500                       # number of WriteReq miss cycles
system.cpu.dcache.WriteReq_miss_rate::.cpu.data     0.227226                       # miss rate for WriteReq accesses
system.cpu.dcache.WriteReq_miss_rate::total     0.227226                       # miss rate for WriteReq accesses
system.cpu.dcache.WriteReq_misses::.cpu.data      2975672                       # number of WriteReq misses
system.cpu.dcache.WriteReq_misses::total      2975672                       # number of WriteReq misses
system.cpu.dcache.WriteReq_mshr_hits::.cpu.data      1487825                       # number of WriteReq MSHR hits
system.cpu.dcache.WriteReq_mshr_hits::total      1487825                       # number of WriteReq MSHR hits
system.cpu.dcache.WriteReq_mshr_miss_latency::.cpu.data 121068326000                       # number of WriteReq MSHR miss cycles
system.cpu.dcache.WriteReq_mshr_miss_latency::total 121068326000                       # number of WriteReq MSHR miss cycles
system.cpu.dcache.WriteReq_mshr_miss_rate::.cpu.data     0.113614                       # mshr miss rate for WriteReq accesses
system.cpu.dcache.WriteReq_mshr_miss_rate::total     0.113614                       # mshr miss rate for WriteReq accesses
system.cpu.dcache.WriteReq_mshr_misses::.cpu.data      1487847                       # number of WriteReq MSHR misses
system.cpu.dcache.WriteReq_mshr_misses::total      1487847                       # number of WriteReq MSHR misses
system.cpu.dcache.avg_blocked_cycles::no_mshrs          nan                       # average number of cycles each access was blocked
system.cpu.dcache.avg_blocked_cycles::no_targets          nan                       # average number of cycles each access was blocked
system.cpu.dcache.blocked::no_mshrs                 0                       # number of cycles access was blocked
system.cpu.dcache.blocked::no_targets               0                       # number of cycles access was blocked
system.cpu.dcache.blocked_cycles::no_mshrs            0                       # number of cycles access was blocked
system.cpu.dcache.blocked_cycles::no_targets            0                       # number of cycles access was blocked
system.cpu.dcache.demand_accesses::.cpu.data     48806647                       # number of demand (read+write) accesses
system.cpu.dcache.demand_accesses::total     48806647                       # number of demand (read+write) accesses
system.cpu.dcache.demand_avg_miss_latency::.cpu.data 79721.130782                       # average overall miss latency
system.cpu.dcache.demand_avg_miss_latency::total 79721.130782                       # average overall miss latency
system.cpu.dcache.demand_avg_mshr_miss_latency::.cpu.data 81370.689875                       # average overall mshr miss latency
system.cpu.dcache.demand_avg_mshr_miss_latency::total 81370.689875                       # average overall mshr miss latency
system.cpu.dcache.demand_hits::.cpu.data     45830865                       # number of demand (read+write) hits
system.cpu.dcache.demand_hits::total         45830865                       # number of demand (read+write) hits
system.cpu.dcache.demand_miss_latency::.cpu.data 237232706000                       # number of demand (read+write) miss cycles
system.cpu.dcache.demand_miss_latency::total 237232706000                       # number of demand (read+write) miss cycles
system.cpu.dcache.demand_miss_rate::.cpu.data     0.060971                       # miss rate for demand accesses
system.cpu.dcache.demand_miss_rate::total     0.060971                       # miss rate for demand accesses
system.cpu.dcache.demand_misses::.cpu.data      2975782                       # number of demand (read+write) misses
system.cpu.dcache.demand_misses::total        2975782                       # number of demand (read+write) misses
system.cpu.dcache.demand_mshr_hits::.cpu.data      1487832                       # number of demand (read+write) MSHR hits
system.cpu.dcache.demand_mshr_hits::total      1487832                       # number of demand (read+write) MSHR hits
system.cpu.dcache.demand_mshr_miss_latency::.cpu.data 121075518000                       # number of demand (read+write) MSHR miss cycles
system.cpu.dcache.demand_mshr_miss_latency::total 121075518000                       # number of demand (read+write) MSHR miss cycles
system.cpu.dcache.demand_mshr_miss_rate::.cpu.data     0.030487                       # mshr miss rate for demand accesses
system.cpu.dcache.demand_mshr_miss_rate::total     0.030487                       # mshr miss rate for demand accesses
system.cpu.dcache.demand_mshr_misses::.cpu.data      1487950                       # number of demand (read+write) MSHR misses
system.cpu.dcache.demand_mshr_misses::total      1487950                       # number of demand (read+write) MSHR misses
system.cpu.dcache.overall_accesses::.cpu.data     48806693                       # number of overall (read+write) accesses
system.cpu.dcache.overall_accesses::total     48806693                       # number of overall (read+write) accesses
system.cpu.dcache.overall_avg_miss_latency::.cpu.data 79720.702144                       # average overall miss latency
system.cpu.dcache.overall_avg_miss_latency::total 79720.702144                       # average overall miss latency
system.cpu.dcache.overall_avg_mshr_miss_latency::.cpu.data 81370.693769                       # average overall mshr miss latency
system.cpu.dcache.overall_avg_mshr_miss_latency::total 81370.693769                       # average overall mshr miss latency
system.cpu.dcache.overall_hits::.cpu.data     45830895                       # number of overall hits
system.cpu.dcache.overall_hits::total        45830895                       # number of overall hits
system.cpu.dcache.overall_miss_latency::.cpu.data 237232706000                       # number of overall miss cycles
system.cpu.dcache.overall_miss_latency::total 237232706000                       # number of overall miss cycles
system.cpu.dcache.overall_miss_rate::.cpu.data     0.060971                       # miss rate for overall accesses
system.cpu.dcache.overall_miss_rate::total     0.060971                       # miss rate for overall accesses
system.cpu.dcache.overall_misses::.cpu.data      2975798                       # number of overall misses
system.cpu.dcache.overall_misses::total       2975798                       # number of overall misses
system.cpu.dcache.overall_mshr_hits::.cpu.data      1487832                       # number of overall MSHR hits
system.cpu.dcache.overall_mshr_hits::total      1487832                       # number of overall MSHR hits
system.cpu.dcache.overall_mshr_miss_latency::.cpu.data 121076337500                       # number of overall MSHR miss cycles
system.cpu.dcache.overall_mshr_miss_latency::total 121076337500                       # number of overall MSHR miss cycles
system.cpu.dcache.overall_mshr_miss_rate::.cpu.data     0.030487                       # mshr miss rate for overall accesses
system.cpu.dcache.overall_mshr_miss_rate::total     0.030487                       # mshr miss rate for overall accesses
system.cpu.dcache.overall_mshr_misses::.cpu.data      1487960                       # number of overall MSHR misses
system.cpu.dcache.overall_mshr_misses::total      1487960                       # number of overall MSHR misses
system.cpu.dcache.pwrStateResidencyTicks::UNDEFINED 174681177500                       # Cumulative time (in ticks) in various power states
system.cpu.dcache.replacements                1486937                       # number of replacements
system.cpu.dcache.tags.age_task_id_blocks_1024::0           87                       # Occupied blocks per task id
system.cpu.dcache.tags.age_task_id_blocks_1024::1          765                       # Occupied blocks per task id
system.cpu.dcache.tags.age_task_id_blocks_1024::2          170                       # Occupied blocks per task id
system.cpu.dcache.tags.age_task_id_blocks_1024::4            2                       # Occupied blocks per task id
system.cpu.dcache.tags.avg_refs             31.801158                       # Average number of references to valid blocks.
system.cpu.dcache.tags.data_accesses         99101403                       # Number of data accesses
system.cpu.dcache.tags.occ_blocks::.cpu.data  1023.438878                       # Average occupied blocks per requestor
system.cpu.dcache.tags.occ_percent::.cpu.data     0.999452                       # Average percentage of cache occupancy
system.cpu.dcache.tags.occ_percent::total     0.999452                       # Average percentage of cache occupancy
system.cpu.dcache.tags.occ_task_id_blocks::1024         1024                       # Occupied blocks per task id
system.cpu.dcache.tags.occ_task_id_percent::1024            1                       # Percentage of cache occupancy per task id
system.cpu.dcache.tags.pwrStateResidencyTicks::UNDEFINED 174681177500                       # Cumulative time (in ticks) in various power states
system.cpu.dcache.tags.sampled_refs           1487961                       # Sample count of references to valid blocks.
system.cpu.dcache.tags.tag_accesses          99101403                       # Number of tag accesses
system.cpu.dcache.tags.tagsinuse          1023.438878                       # Cycle average of tags in use
system.cpu.dcache.tags.total_refs            47318883                       # Total number of references to valid blocks.
system.cpu.dcache.tags.warmup_cycle            195500                       # Cycle when the warmup percentage was hit.
system.cpu.dcache.writebacks::.writebacks      1486839                       # number of writebacks
system.cpu.dcache.writebacks::total           1486839                       # number of writebacks
system.cpu.discardedOps                          2523                       # Number of ops (including micro ops) which were discarded before commit
system.cpu.dstage2_mmu.stage2_tlb.accesses            0                       # DTB accesses
system.cpu.dstage2_mmu.stage2_tlb.align_faults            0                       # Number of TLB faults due to alignment restrictions
system.cpu.dstage2_mmu.stage2_tlb.domain_faults            0                       # Number of TLB faults due to domain restrictions
system.cpu.dstage2_mmu.stage2_tlb.flush_entries            0                       # Number of entries that have been flushed from TLB
system.cpu.dstage2_mmu.stage2_tlb.flush_tlb            0                       # Number of times complete TLB was flushed
system.cpu.dstage2_mmu.stage2_tlb.flush_tlb_asid            0                       # Number of times TLB was flushed by ASID
system.cpu.dstage2_mmu.stage2_tlb.flush_tlb_mva            0                       # Number of times TLB was flushed by MVA
system.cpu.dstage2_mmu.stage2_tlb.flush_tlb_mva_asid            0                       # Number of times TLB was flushed by MVA & ASID
system.cpu.dstage2_mmu.stage2_tlb.hits              0                       # DTB hits
system.cpu.dstage2_mmu.stage2_tlb.inst_accesses            0                       # ITB inst accesses
system.cpu.dstage2_mmu.stage2_tlb.inst_hits            0                       # ITB inst hits
system.cpu.dstage2_mmu.stage2_tlb.inst_misses            0                       # ITB inst misses
system.cpu.dstage2_mmu.stage2_tlb.misses            0                       # DTB misses
system.cpu.dstage2_mmu.stage2_tlb.perms_faults            0                       # Number of TLB faults due to permissions restrictions
system.cpu.dstage2_mmu.stage2_tlb.prefetch_faults            0                       # Number of TLB faults due to prefetch
system.cpu.dstage2_mmu.stage2_tlb.read_accesses            0                       # DTB read accesses
system.cpu.dstage2_mmu.stage2_tlb.read_hits            0                       # DTB read hits
system.cpu.dstage2_mmu.stage2_tlb.read_misses            0                       # DTB read misses
system.cpu.dstage2_mmu.stage2_tlb.walker.pwrStateResidencyTicks::UNDEFINED 174681177500                       # Cumulative time (in ticks) in various power states
system.cpu.dstage2_mmu.stage2_tlb.walker.walkRequestOrigin_Requested::Data            0                       # Table walker requests started/completed, data/inst
system.cpu.dstage2_mmu.stage2_tlb.walker.walkRequestOrigin_Requested::Inst            0                       # Table walker requests started/completed, data/inst
system.cpu.dstage2_mmu.stage2_tlb.walker.walkRequestOrigin_Requested::total            0                       # Table walker requests started/completed, data/inst
system.cpu.dstage2_mmu.stage2_tlb.walker.walkRequestOrigin_Completed::Data            0                       # Table walker requests started/completed, data/inst
system.cpu.dstage2_mmu.stage2_tlb.walker.walkRequestOrigin_Completed::Inst            0                       # Table walker requests started/completed, data/inst
system.cpu.dstage2_mmu.stage2_tlb.walker.walkRequestOrigin_Completed::total            0                       # Table walker requests started/completed, data/inst
system.cpu.dstage2_mmu.stage2_tlb.walker.walkRequestOrigin::total            0                       # Table walker requests started/completed, data/inst
system.cpu.dstage2_mmu.stage2_tlb.walker.walks            0                       # Table walker walks requested
system.cpu.dstage2_mmu.stage2_tlb.write_accesses            0                       # DTB write accesses
system.cpu.dstage2_mmu.stage2_tlb.write_hits            0                       # DTB write hits
system.cpu.dstage2_mmu.stage2_tlb.write_misses            0                       # DTB write misses
system.cpu.dtb.accesses                             0                       # DTB accesses
system.cpu.dtb.align_faults                         0                       # Number of TLB faults due to alignment restrictions
system.cpu.dtb.domain_faults                        0                       # Number of TLB faults due to domain restrictions
system.cpu.dtb.flush_entries                        0                       # Number of entries that have been flushed from TLB
system.cpu.dtb.flush_tlb                            0                       # Number of times complete TLB was flushed
system.cpu.dtb.flush_tlb_asid                       0                       # Number of times TLB was flushed by ASID
system.cpu.dtb.flush_tlb_mva                        0                       # Number of times TLB was flushed by MVA
system.cpu.dtb.flush_tlb_mva_asid                   0                       # Number of times TLB was flushed by MVA & ASID
system.cpu.dtb.hits                                 0                       # DTB hits
system.cpu.dtb.inst_accesses                        0                       # ITB inst accesses
system.cpu.dtb.inst_hits                            0                       # ITB inst hits
system.cpu.dtb.inst_misses                          0                       # ITB inst misses
system.cpu.dtb.misses                               0                       # DTB misses
system.cpu.dtb.perms_faults                         0                       # Number of TLB faults due to permissions restrictions
system.cpu.dtb.prefetch_faults                      0                       # Number of TLB faults due to prefetch
system.cpu.dtb.read_accesses                        0                       # DTB read accesses
system.cpu.dtb.read_hits                            0                       # DTB read hits
system.cpu.dtb.read_misses                          0                       # DTB read misses
system.cpu.dtb.walker.pwrStateResidencyTicks::UNDEFINED 174681177500                       # Cumulative time (in ticks) in various power states
system.cpu.dtb.walker.walkRequestOrigin_Requested::Data            0                       # Table walker requests started/completed, data/inst
system.cpu.dtb.walker.walkRequestOrigin_Requested::Inst            0                       # Table walker requests started/completed, data/inst
system.cpu.dtb.walker.walkRequestOrigin_Requested::total            0                       # Table walker requests started/completed, data/inst
system.cpu.dtb.walker.walkRequestOrigin_Completed::Data            0                       # Table walker requests started/completed, data/inst
system.cpu.dtb.walker.walkRequestOrigin_Completed::Inst            0                       # Table walker requests started/completed, data/inst
system.cpu.dtb.walker.walkRequestOrigin_Completed::total            0                       # Table walker requests started/completed, data/inst
system.cpu.dtb.walker.walkRequestOrigin::total            0                       # Table walker requests started/completed, data/inst
system.cpu.dtb.walker.walks                         0                       # Table walker walks requested
system.cpu.dtb.write_accesses                       0                       # DTB write accesses
system.cpu.dtb.write_hits                           0                       # DTB write hits
system.cpu.dtb.write_misses                         0                       # DTB write misses
system.cpu.fetch2.amo_instructions                  0                       # Number of memory atomic instructions successfully decoded
system.cpu.fetch2.fp_instructions                   0                       # Number of floating point instructions successfully decoded
system.cpu.fetch2.int_instructions           49411424                       # Number of integer instructions successfully decoded
system.cpu.fetch2.load_instructions          36901103                       # Number of memory load instructions successfully decoded
system.cpu.fetch2.store_instructions         13094543                       # Number of memory store instructions successfully decoded
system.cpu.fetch2.vec_instructions                  0                       # Number of SIMD instructions successfully decoded
system.cpu.icache.ReadReq_accesses::.cpu.inst      5364462                       # number of ReadReq accesses(hits+misses)
system.cpu.icache.ReadReq_accesses::total      5364462                       # number of ReadReq accesses(hits+misses)
system.cpu.icache.ReadReq_avg_miss_latency::.cpu.inst 69916.221034                       # average ReadReq miss latency
system.cpu.icache.ReadReq_avg_miss_latency::total 69916.221034                       # average ReadReq miss latency
system.cpu.icache.ReadReq_avg_mshr_miss_latency::.cpu.inst 68916.221034                       # average ReadReq mshr miss latency
system.cpu.icache.ReadReq_avg_mshr_miss_latency::total 68916.221034                       # average ReadReq mshr miss latency
system.cpu.icache.ReadReq_hits::.cpu.inst      5363901                       # number of ReadReq hits
system.cpu.icache.ReadReq_hits::total         5363901                       # number of ReadReq hits
system.cpu.icache.ReadReq_miss_latency::.cpu.inst     39223000                       # number of ReadReq miss cycles
system.cpu.icache.ReadReq_miss_latency::total     39223000                       # number of ReadReq miss cycles
system.cpu.icache.ReadReq_miss_rate::.cpu.inst     0.000105                       # miss rate for ReadReq accesses
system.cpu.icache.ReadReq_miss_rate::total     0.000105                       # miss rate for ReadReq accesses
system.cpu.icache.ReadReq_misses::.cpu.inst          561                       # number of ReadReq misses
system.cpu.icache.ReadReq_misses::total           561                       # number of ReadReq misses
system.cpu.icache.ReadReq_mshr_miss_latency::.cpu.inst     38662000                       # number of ReadReq MSHR miss cycles
system.cpu.icache.ReadReq_mshr_miss_latency::total     38662000                       # number of ReadReq MSHR miss cycles
system.cpu.icache.ReadReq_mshr_miss_rate::.cpu.inst     0.000105                       # mshr miss rate for ReadReq accesses
system.cpu.icache.ReadReq_mshr_miss_rate::total     0.000105                       # mshr miss rate for ReadReq accesses
system.cpu.icache.ReadReq_mshr_misses::.cpu.inst          561                       # number of ReadReq MSHR misses
system.cpu.icache.ReadReq_mshr_misses::total          561                       # number of ReadReq MSHR misses
system.cpu.icache.avg_blocked_cycles::no_mshrs          nan                       # average number of cycles each access was blocked
system.cpu.icache.avg_blocked_cycles::no_targets          nan                       # average number of cycles each access was blocked
system.cpu.icache.blocked::no_mshrs                 0                       # number of cycles access was blocked
system.cpu.icache.blocked::no_targets               0                       # number of cycles access was blocked
system.cpu.icache.blocked_cycles::no_mshrs            0                       # number of cycles access was blocked
system.cpu.icache.blocked_cycles::no_targets            0                       # number of cycles access was blocked
system.cpu.icache.demand_accesses::.cpu.inst      5364462                       # number of demand (read+write) accesses
system.cpu.icache.demand_accesses::total      5364462                       # number of demand (read+write) accesses
system.cpu.icache.demand_avg_miss_latency::.cpu.inst 69916.221034                       # average overall miss latency
system.cpu.icache.demand_avg_miss_latency::total 69916.221034                       # average overall miss latency
system.cpu.icache.demand_avg_mshr_miss_latency::.cpu.inst 68916.221034                       # average overall mshr miss latency
system.cpu.icache.demand_avg_mshr_miss_latency::total 68916.221034                       # average overall mshr miss latency
system.cpu.icache.demand_hits::.cpu.inst      5363901                       # number of demand (read+write) hits
system.cpu.icache.demand_hits::total          5363901                       # number of demand (read+write) hits
system.cpu.icache.demand_miss_latency::.cpu.inst     39223000                       # number of demand (read+write) miss cycles
system.cpu.icache.demand_miss_latency::total     39223000                       # number of demand (read+write) miss cycles
system.cpu.icache.demand_miss_rate::.cpu.inst     0.000105                       # miss rate for demand accesses
system.cpu.icache.demand_miss_rate::total     0.000105                       # miss rate for demand accesses
system.cpu.icache.demand_misses::.cpu.inst          561                       # number of demand (read+write) misses
system.cpu.icache.demand_misses::total            561                       # number of demand (read+write) misses
system.cpu.icache.demand_mshr_miss_latency::.cpu.inst     38662000                       # number of demand (read+write) MSHR miss cycles
system.cpu.icache.demand_mshr_miss_latency::total     38662000                       # number of demand (read+write) MSHR miss cycles
system.cpu.icache.demand_mshr_miss_rate::.cpu.inst     0.000105                       # mshr miss rate for demand accesses
system.cpu.icache.demand_mshr_miss_rate::total     0.000105                       # mshr miss rate for demand accesses
system.cpu.icache.demand_mshr_misses::.cpu.inst          561                       # number of demand (read+write) MSHR misses
system.cpu.icache.demand_mshr_misses::total          561                       # number of demand (read+write) MSHR misses
system.cpu.icache.overall_accesses::.cpu.inst      5364462                       # number of overall (read+write) accesses
system.cpu.icache.overall_accesses::total      5364462                       # number of overall (read+write) accesses
system.cpu.icache.overall_avg_miss_latency::.cpu.inst 69916.221034                       # average overall miss latency
system.cpu.icache.overall_avg_miss_latency::total 69916.221034                       # average overall miss latency
system.cpu.icache.overall_avg_mshr_miss_latency::.cpu.inst 68916.221034                       # average overall mshr miss latency
system.cpu.icache.overall_avg_mshr_miss_latency::total 68916.221034                       # average overall mshr miss latency
system.cpu.icache.overall_hits::.cpu.inst      5363901                       # number of overall hits
system.cpu.icache.overall_hits::total         5363901                       # number of overall hits
system.cpu.icache.overall_miss_latency::.cpu.inst     39223000                       # number of overall miss cycles
system.cpu.icache.overall_miss_latency::total     39223000                       # number of overall miss cycles
system.cpu.icache.overall_miss_rate::.cpu.inst     0.000105                       # miss rate for overall accesses
system.cpu.icache.overall_miss_rate::total     0.000105                       # miss rate for overall accesses
system.cpu.icache.overall_misses::.cpu.inst          561                       # number of overall misses
system.cpu.icache.overall_misses::total           561                       # number of overall misses
system.cpu.icache.overall_mshr_miss_latency::.cpu.inst     38662000                       # number of overall MSHR miss cycles
system.cpu.icache.overall_mshr_miss_latency::total     38662000                       # number of overall MSHR miss cycles
system.cpu.icache.overall_mshr_miss_rate::.cpu.inst     0.000105                       # mshr miss rate for overall accesses
system.cpu.icache.overall_mshr_miss_rate::total     0.000105                       # mshr miss rate for overall accesses
system.cpu.icache.overall_mshr_misses::.cpu.inst          561                       # number of overall MSHR misses
system.cpu.icache.overall_mshr_misses::total          561                       # number of overall MSHR misses
system.cpu.icache.pwrStateResidencyTicks::UNDEFINED 174681177500                       # Cumulative time (in ticks) in various power states
system.cpu.icache.replacements                    216                       # number of replacements
system.cpu.icache.tags.age_task_id_blocks_1024::4          345                       # Occupied blocks per task id
system.cpu.icache.tags.avg_refs           9562.320856                       # Average number of references to valid blocks.
system.cpu.icache.tags.data_accesses         10729485                       # Number of data accesses
system.cpu.icache.tags.occ_blocks::.cpu.inst   344.955159                       # Average occupied blocks per requestor
system.cpu.icache.tags.occ_percent::.cpu.inst     0.673741                       # Average percentage of cache occupancy
system.cpu.icache.tags.occ_percent::total     0.673741                       # Average percentage of cache occupancy
system.cpu.icache.tags.occ_task_id_blocks::1024          345                       # Occupied blocks per task id
system.cpu.icache.tags.occ_task_id_percent::1024     0.673828                       # Percentage of cache occupancy per task id
system.cpu.icache.tags.pwrStateResidencyTicks::UNDEFINED 174681177500                       # Cumulative time (in ticks) in various power states
system.cpu.icache.tags.sampled_refs               561                       # Sample count of references to valid blocks.
system.cpu.icache.tags.tag_accesses          10729485                       # Number of tag accesses
system.cpu.icache.tags.tagsinuse           344.955159                       # Cycle average of tags in use
system.cpu.icache.tags.total_refs             5364462                       # Total number of references to valid blocks.
system.cpu.icache.tags.warmup_cycle             87500                       # Cycle when the warmup percentage was hit.
system.cpu.icache.writebacks::.writebacks          216                       # number of writebacks
system.cpu.icache.writebacks::total               216                       # number of writebacks
system.cpu.idleCycles                       232685404                       # Total number of cycles that the object has spent stopped
system.cpu.ipc                               0.286236                       # IPC: instructions per cycle
system.cpu.istage2_mmu.stage2_tlb.accesses            0                       # DTB accesses
system.cpu.istage2_mmu.stage2_tlb.align_faults            0                       # Number of TLB faults due to alignment restrictions
system.cpu.istage2_mmu.stage2_tlb.domain_faults            0                       # Number of TLB faults due to domain restrictions
system.cpu.istage2_mmu.stage2_tlb.flush_entries            0                       # Number of entries that have been flushed from TLB
system.cpu.istage2_mmu.stage2_tlb.flush_tlb            0                       # Number of times complete TLB was flushed
system.cpu.istage2_mmu.stage2_tlb.flush_tlb_asid            0                       # Number of times TLB was flushed by ASID
system.cpu.istage2_mmu.stage2_tlb.flush_tlb_mva            0                       # Number of times TLB was flushed by MVA
system.cpu.istage2_mmu.stage2_tlb.flush_tlb_mva_asid            0                       # Number of times TLB was flushed by MVA & ASID
system.cpu.istage2_mmu.stage2_tlb.hits              0                       # DTB hits
system.cpu.istage2_mmu.stage2_tlb.inst_accesses            0                       # ITB inst accesses
system.cpu.istage2_mmu.stage2_tlb.inst_hits            0                       # ITB inst hits
system.cpu.istage2_mmu.stage2_tlb.inst_misses            0                       # ITB inst misses
system.cpu.istage2_mmu.stage2_tlb.misses            0                       # DTB misses
system.cpu.istage2_mmu.stage2_tlb.perms_faults            0                       # Number of TLB faults due to permissions restrictions
system.cpu.istage2_mmu.stage2_tlb.prefetch_faults            0                       # Number of TLB faults due to prefetch
system.cpu.istage2_mmu.stage2_tlb.read_accesses            0                       # DTB read accesses
system.cpu.istage2_mmu.stage2_tlb.read_hits            0                       # DTB read hits
system.cpu.istage2_mmu.stage2_tlb.read_misses            0                       # DTB read misses
system.cpu.istage2_mmu.stage2_tlb.walker.pwrStateResidencyTicks::UNDEFINED 174681177500                       # Cumulative time (in ticks) in various power states
system.cpu.istage2_mmu.stage2_tlb.walker.walkRequestOrigin_Requested::Data            0                       # Table walker requests started/completed, data/inst
system.cpu.istage2_mmu.stage2_tlb.walker.walkRequestOrigin_Requested::Inst            0                       # Table walker requests started/completed, data/inst
system.cpu.istage2_mmu.stage2_tlb.walker.walkRequestOrigin_Requested::total            0                       # Table walker requests started/completed, data/inst
system.cpu.istage2_mmu.stage2_tlb.walker.walkRequestOrigin_Completed::Data            0                       # Table walker requests started/completed, data/inst
system.cpu.istage2_mmu.stage2_tlb.walker.walkRequestOrigin_Completed::Inst            0                       # Table walker requests started/completed, data/inst
system.cpu.istage2_mmu.stage2_tlb.walker.walkRequestOrigin_Completed::total            0                       # Table walker requests started/completed, data/inst
system.cpu.istage2_mmu.stage2_tlb.walker.walkRequestOrigin::total            0                       # Table walker requests started/completed, data/inst
system.cpu.istage2_mmu.stage2_tlb.walker.walks            0                       # Table walker walks requested
system.cpu.istage2_mmu.stage2_tlb.write_accesses            0                       # DTB write accesses
system.cpu.istage2_mmu.stage2_tlb.write_hits            0                       # DTB write hits
system.cpu.istage2_mmu.stage2_tlb.write_misses            0                       # DTB write misses
system.cpu.itb.accesses                             0                       # DTB accesses
system.cpu.itb.align_faults                         0                       # Number of TLB faults due to alignment restrictions
system.cpu.itb.domain_faults                        0                       # Number of TLB faults due to domain restrictions
system.cpu.itb.flush_entries                        0                       # Number of entries that have been flushed from TLB
system.cpu.itb.flush_tlb                            0                       # Number of times complete TLB was flushed
system.cpu.itb.flush_tlb_asid                       0                       # Number of times TLB was flushed by ASID
system.cpu.itb.flush_tlb_mva                        0                       # Number of times TLB was flushed by MVA
system.cpu.itb.flush_tlb_mva_asid                   0                       # Number of times TLB was flushed by MVA & ASID
system.cpu.itb.hits                                 0                       # DTB hits
system.cpu.itb.inst_accesses                        0                       # ITB inst accesses
system.cpu.itb.inst_hits                            0                       # ITB inst hits
system.cpu.itb.inst_misses                          0                       # ITB inst misses
system.cpu.itb.misses                               0                       # DTB misses
system.cpu.itb.perms_faults                         0                       # Number of TLB faults due to permissions restrictions
system.cpu.itb.prefetch_faults                      0                       # Number of TLB faults due to prefetch
system.cpu.itb.read_accesses                        0                       # DTB read accesses
system.cpu.itb.read_hits                            0                       # DTB read hits
system.cpu.itb.read_misses                          0                       # DTB read misses
system.cpu.itb.walker.pwrStateResidencyTicks::UNDEFINED 174681177500                       # Cumulative time (in ticks) in various power states
system.cpu.itb.walker.walkRequestOrigin_Requested::Data            0                       # Table walker requests started/completed, data/inst
system.cpu.itb.walker.walkRequestOrigin_Requested::Inst            0                       # Table walker requests started/completed, data/inst
system.cpu.itb.walker.walkRequestOrigin_Requested::total            0                       # Table walker requests started/completed, data/inst
system.cpu.itb.walker.walkRequestOrigin_Completed::Data            0                       # Table walker requests started/completed, data/inst
system.cpu.itb.walker.walkRequestOrigin_Completed::Inst            0                       # Table walker requests started/completed, data/inst
system.cpu.itb.walker.walkRequestOrigin_Completed::total            0                       # Table walker requests started/completed, data/inst
system.cpu.itb.walker.walkRequestOrigin::total            0                       # Table walker requests started/completed, data/inst
system.cpu.itb.walker.walks                         0                       # Table walker walks requested
system.cpu.itb.write_accesses                       0                       # DTB write accesses
system.cpu.itb.write_hits                           0                       # DTB write hits
system.cpu.itb.write_misses                         0                       # DTB write misses
system.cpu.numCycles                        349362355                       # number of cpu cycles simulated
system.cpu.numFetchSuspends                         0                       # Number of times Execute suspended instruction fetching
system.cpu.numWorkItemsCompleted                    0                       # number of work items this cpu completed
system.cpu.numWorkItemsStarted                      0                       # number of work items this cpu started
system.cpu.op_class_0::No_OpClass                   0      0.00%      0.00% # Class of committed instruction
system.cpu.op_class_0::IntAlu                50006822     50.01%     50.01% # Class of committed instruction
system.cpu.op_class_0::IntMult                     85      0.00%     50.01% # Class of committed instruction
system.cpu.op_class_0::IntDiv                       0      0.00%     50.01% # Class of committed instruction
system.cpu.op_class_0::FloatAdd                     0      0.00%     50.01% # Class of committed instruction
system.cpu.op_class_0::FloatCmp                     0      0.00%     50.01% # Class of committed instruction
system.cpu.op_class_0::FloatCvt                     0      0.00%     50.01% # Class of committed instruction
system.cpu.op_class_0::FloatMult                    0      0.00%     50.01% # Class of committed instruction
system.cpu.op_class_0::FloatMultAcc                 0      0.00%     50.01% # Class of committed instruction
system.cpu.op_class_0::FloatDiv                     0      0.00%     50.01% # Class of committed instruction
system.cpu.op_class_0::FloatMisc                    0      0.00%     50.01% # Class of committed instruction
system.cpu.op_class_0::FloatSqrt                    0      0.00%     50.01% # Class of committed instruction
system.cpu.op_class_0::SimdAdd                      0      0.00%     50.01% # Class of committed instruction
system.cpu.op_class_0::SimdAddAcc                   0      0.00%     50.01% # Class of committed instruction
system.cpu.op_class_0::SimdAlu                      0      0.00%     50.01% # Class of committed instruction
system.cpu.op_class_0::SimdCmp                      0      0.00%     50.01% # Class of committed instruction
system.cpu.op_class_0::SimdCvt                      0      0.00%     50.01% # Class of committed instruction
system.cpu.op_class_0::SimdMisc                     0      0.00%     50.01% # Class of committed instruction
system.cpu.op_class_0::SimdMult                     0      0.00%     50.01% # Class of committed instruction
system.cpu.op_class_0::SimdMultAcc                  0      0.00%     50.01% # Class of committed instruction
system.cpu.op_class_0::SimdShift                    0      0.00%     50.01% # Class of committed instruction
system.cpu.op_class_0::SimdShiftAcc                 0      0.00%     50.01% # Class of committed instruction
system.cpu.op_class_0::SimdDiv                      0      0.00%     50.01% # Class of committed instruction
system.cpu.op_class_0::SimdSqrt                     0      0.00%     50.01% # Class of committed instruction
system.cpu.op_class_0::SimdFloatAdd                 0      0.00%     50.01% # Class of committed instruction
system.cpu.op_class_0::SimdFloatAlu                 0      0.00%     50.01% # Class of committed instruction
system.cpu.op_class_0::SimdFloatCmp                 2      0.00%     50.01% # Class of committed instruction
system.cpu.op_class_0::SimdFloatCvt                 0      0.00%     50.01% # Class of committed instruction
system.cpu.op_class_0::SimdFloatDiv                 0      0.00%     50.01% # Class of committed instruction
system.cpu.op_class_0::SimdFloatMisc                6      0.00%     50.01% # Class of committed instruction
system.cpu.op_class_0::SimdFloatMult                0      0.00%     50.01% # Class of committed instruction
system.cpu.op_class_0::SimdFloatMultAcc             0      0.00%     50.01% # Class of committed instruction
system.cpu.op_class_0::SimdFloatSqrt                0      0.00%     50.01% # Class of committed instruction
system.cpu.op_class_0::SimdReduceAdd                0      0.00%     50.01% # Class of committed instruction
system.cpu.op_class_0::SimdReduceAlu                0      0.00%     50.01% # Class of committed instruction
system.cpu.op_class_0::SimdReduceCmp                0      0.00%     50.01% # Class of committed instruction
system.cpu.op_class_0::SimdFloatReduceAdd            0      0.00%     50.01% # Class of committed instruction
system.cpu.op_class_0::SimdFloatReduceCmp            0      0.00%     50.01% # Class of committed instruction
system.cpu.op_class_0::SimdAes                      0      0.00%     50.01% # Class of committed instruction
system.cpu.op_class_0::SimdAesMix                   0      0.00%     50.01% # Class of committed instruction
system.cpu.op_class_0::SimdSha1Hash                 0      0.00%     50.01% # Class of committed instruction
system.cpu.op_class_0::SimdSha1Hash2                0      0.00%     50.01% # Class of committed instruction
system.cpu.op_class_0::SimdSha256Hash               0      0.00%     50.01% # Class of committed instruction
system.cpu.op_class_0::SimdSha256Hash2              0      0.00%     50.01% # Class of committed instruction
system.cpu.op_class_0::SimdShaSigma2                0      0.00%     50.01% # Class of committed instruction
system.cpu.op_class_0::SimdShaSigma3                0      0.00%     50.01% # Class of committed instruction
system.cpu.op_class_0::SimdPredAlu                  0      0.00%     50.01% # Class of committed instruction
system.cpu.op_class_0::MemRead               36900886     36.90%     86.90% # Class of committed instruction
system.cpu.op_class_0::MemWrite              13095738     13.10%    100.00% # Class of committed instruction
system.cpu.op_class_0::FloatMemRead                 0      0.00%    100.00% # Class of committed instruction
system.cpu.op_class_0::FloatMemWrite                0      0.00%    100.00% # Class of committed instruction
system.cpu.op_class_0::IprAccess                    0      0.00%    100.00% # Class of committed instruction
system.cpu.op_class_0::InstPrefetch                 0      0.00%    100.00% # Class of committed instruction
system.cpu.op_class_0::total                100003539                       # Class of committed instruction
system.cpu.pwrStateResidencyTicks::ON    174681177500                       # Cumulative time (in ticks) in various power states
system.cpu.tickCycles                       116676951                       # Number of cycles that the object actually ticked
system.cpu.workload.numSyscalls                    18                       # Number of system calls
system.cpu_clk_domain.clock                       500                       # Clock period in ticks
system.cpu_voltage_domain.voltage                   1                       # Voltage in Volts
system.l2.ReadCleanReq_accesses::.cpu.inst          561                       # number of ReadCleanReq accesses(hits+misses)
system.l2.ReadCleanReq_accesses::total            561                       # number of ReadCleanReq accesses(hits+misses)
system.l2.ReadCleanReq_avg_miss_latency::.cpu.inst 75370.934959                       # average ReadCleanReq miss latency
system.l2.ReadCleanReq_avg_miss_latency::total 75370.934959                       # average ReadCleanReq miss latency
system.l2.ReadCleanReq_avg_mshr_miss_latency::.cpu.inst 65370.934959                       # average ReadCleanReq mshr miss latency
system.l2.ReadCleanReq_avg_mshr_miss_latency::total 65370.934959                       # average ReadCleanReq mshr miss latency
system.l2.ReadCleanReq_hits::.cpu.inst             69                       # number of ReadCleanReq hits
system.l2.ReadCleanReq_hits::total                 69                       # number of ReadCleanReq hits
system.l2.ReadCleanReq_miss_latency::.cpu.inst     37082500                       # number of ReadCleanReq miss cycles
system.l2.ReadCleanReq_miss_latency::total     37082500                       # number of ReadCleanReq miss cycles
system.l2.ReadCleanReq_miss_rate::.cpu.inst     0.877005                       # miss rate for ReadCleanReq accesses
system.l2.ReadCleanReq_miss_rate::total      0.877005                       # miss rate for ReadCleanReq accesses
system.l2.ReadCleanReq_misses::.cpu.inst          492                       # number of ReadCleanReq misses
system.l2.ReadCleanReq_misses::total              492                       # number of ReadCleanReq misses
system.l2.ReadCleanReq_mshr_miss_latency::.cpu.inst     32162500                       # number of ReadCleanReq MSHR miss cycles
system.l2.ReadCleanReq_mshr_miss_latency::total     32162500                       # number of ReadCleanReq MSHR miss cycles
system.l2.ReadCleanReq_mshr_miss_rate::.cpu.inst     0.877005                       # mshr miss rate for ReadCleanReq accesses
system.l2.ReadCleanReq_mshr_miss_rate::total     0.877005                       # mshr miss rate for ReadCleanReq accesses
system.l2.ReadCleanReq_mshr_misses::.cpu.inst          492                       # number of ReadCleanReq MSHR misses
system.l2.ReadCleanReq_mshr_misses::total          492                       # number of ReadCleanReq MSHR misses
system.l2.ReadExReq_accesses::.cpu.data       1487847                       # number of ReadExReq accesses(hits+misses)
system.l2.ReadExReq_accesses::total           1487847                       # number of ReadExReq accesses(hits+misses)
system.l2.ReadExReq_avg_miss_latency::.cpu.data 79871.488130                       # average ReadExReq miss latency
system.l2.ReadExReq_avg_miss_latency::total 79871.488130                       # average ReadExReq miss latency
system.l2.ReadExReq_avg_mshr_miss_latency::.cpu.data 69871.488130                       # average ReadExReq mshr miss latency
system.l2.ReadExReq_avg_mshr_miss_latency::total 69871.488130                       # average ReadExReq mshr miss latency
system.l2.ReadExReq_miss_latency::.cpu.data 118836554000                       # number of ReadExReq miss cycles
system.l2.ReadExReq_miss_latency::total  118836554000                       # number of ReadExReq miss cycles
system.l2.ReadExReq_miss_rate::.cpu.data            1                       # miss rate for ReadExReq accesses
system.l2.ReadExReq_miss_rate::total                1                       # miss rate for ReadExReq accesses
system.l2.ReadExReq_misses::.cpu.data         1487847                       # number of ReadExReq misses
system.l2.ReadExReq_misses::total             1487847                       # number of ReadExReq misses
system.l2.ReadExReq_mshr_miss_latency::.cpu.data 103958084000                       # number of ReadExReq MSHR miss cycles
system.l2.ReadExReq_mshr_miss_latency::total 103958084000                       # number of ReadExReq MSHR miss cycles
system.l2.ReadExReq_mshr_miss_rate::.cpu.data            1                       # mshr miss rate for ReadExReq accesses
system.l2.ReadExReq_mshr_miss_rate::total            1                       # mshr miss rate for ReadExReq accesses
system.l2.ReadExReq_mshr_misses::.cpu.data      1487847                       # number of ReadExReq MSHR misses
system.l2.ReadExReq_mshr_misses::total        1487847                       # number of ReadExReq MSHR misses
system.l2.ReadSharedReq_accesses::.cpu.data          114                       # number of ReadSharedReq accesses(hits+misses)
system.l2.ReadSharedReq_accesses::total           114                       # number of ReadSharedReq accesses(hits+misses)
system.l2.ReadSharedReq_avg_miss_latency::.cpu.data 77956.310680                       # average ReadSharedReq miss latency
system.l2.ReadSharedReq_avg_miss_latency::total 77956.310680                       # average ReadSharedReq miss latency
system.l2.ReadSharedReq_avg_mshr_miss_latency::.cpu.data 68459.595960                       # average ReadSharedReq mshr miss latency
system.l2.ReadSharedReq_avg_mshr_miss_latency::total 68459.595960                       # average ReadSharedReq mshr miss latency
system.l2.ReadSharedReq_hits::.cpu.data            11                       # number of ReadSharedReq hits
system.l2.ReadSharedReq_hits::total                11                       # number of ReadSharedReq hits
system.l2.ReadSharedReq_miss_latency::.cpu.data      8029500                       # number of ReadSharedReq miss cycles
system.l2.ReadSharedReq_miss_latency::total      8029500                       # number of ReadSharedReq miss cycles
system.l2.ReadSharedReq_miss_rate::.cpu.data     0.903509                       # miss rate for ReadSharedReq accesses
system.l2.ReadSharedReq_miss_rate::total     0.903509                       # miss rate for ReadSharedReq accesses
system.l2.ReadSharedReq_misses::.cpu.data          103                       # number of ReadSharedReq misses
system.l2.ReadSharedReq_misses::total             103                       # number of ReadSharedReq misses
system.l2.ReadSharedReq_mshr_hits::.cpu.data            4                       # number of ReadSharedReq MSHR hits
system.l2.ReadSharedReq_mshr_hits::total            4                       # number of ReadSharedReq MSHR hits
system.l2.ReadSharedReq_mshr_miss_latency::.cpu.data      6777500                       # number of ReadSharedReq MSHR miss cycles
system.l2.ReadSharedReq_mshr_miss_latency::total      6777500                       # number of ReadSharedReq MSHR miss cycles
system.l2.ReadSharedReq_mshr_miss_rate::.cpu.data     0.868421                       # mshr miss rate for ReadSharedReq accesses
system.l2.ReadSharedReq_mshr_miss_rate::total     0.868421                       # mshr miss rate for ReadSharedReq accesses
system.l2.ReadSharedReq_mshr_misses::.cpu.data           99                       # number of ReadSharedReq MSHR misses
system.l2.ReadSharedReq_mshr_misses::total           99                       # number of ReadSharedReq MSHR misses
system.l2.WritebackClean_accesses::.writebacks          205                       # number of WritebackClean accesses(hits+misses)
system.l2.WritebackClean_accesses::total          205                       # number of WritebackClean accesses(hits+misses)
system.l2.WritebackClean_hits::.writebacks          205                       # number of WritebackClean hits
system.l2.WritebackClean_hits::total              205                       # number of WritebackClean hits
system.l2.WritebackDirty_accesses::.writebacks      1486839                       # number of WritebackDirty accesses(hits+misses)
system.l2.WritebackDirty_accesses::total      1486839                       # number of WritebackDirty accesses(hits+misses)
system.l2.WritebackDirty_hits::.writebacks      1486839                       # number of WritebackDirty hits
system.l2.WritebackDirty_hits::total          1486839                       # number of WritebackDirty hits
system.l2.avg_blocked_cycles::no_mshrs            nan                       # average number of cycles each access was blocked
system.l2.avg_blocked_cycles::no_targets          nan                       # average number of cycles each access was blocked
system.l2.blocked::no_mshrs                         0                       # number of cycles access was blocked
system.l2.blocked::no_targets                       0                       # number of cycles access was blocked
system.l2.blocked_cycles::no_mshrs                  0                       # number of cycles access was blocked
system.l2.blocked_cycles::no_targets                0                       # number of cycles access was blocked
system.l2.demand_accesses::.cpu.inst              561                       # number of demand (read+write) accesses
system.l2.demand_accesses::.cpu.data          1487961                       # number of demand (read+write) accesses
system.l2.demand_accesses::total              1488522                       # number of demand (read+write) accesses
system.l2.demand_avg_miss_latency::.cpu.inst 75370.934959                       # average overall miss latency
system.l2.demand_avg_miss_latency::.cpu.data 79871.355556                       # average overall miss latency
system.l2.demand_avg_miss_latency::total 79869.867956                       # average overall miss latency
system.l2.demand_avg_mshr_miss_latency::.cpu.inst 65370.934959                       # average overall mshr miss latency
system.l2.demand_avg_mshr_miss_latency::.cpu.data 69871.394190                       # average overall mshr miss latency
system.l2.demand_avg_mshr_miss_latency::total 69869.906573                       # average overall mshr miss latency
system.l2.demand_hits::.cpu.inst                   69                       # number of demand (read+write) hits
system.l2.demand_hits::.cpu.data                   11                       # number of demand (read+write) hits
system.l2.demand_hits::total                       80                       # number of demand (read+write) hits
system.l2.demand_miss_latency::.cpu.inst     37082500                       # number of demand (read+write) miss cycles
system.l2.demand_miss_latency::.cpu.data 118844583500                       # number of demand (read+write) miss cycles
system.l2.demand_miss_latency::total     118881666000                       # number of demand (read+write) miss cycles
system.l2.demand_miss_rate::.cpu.inst        0.877005                       # miss rate for demand accesses
system.l2.demand_miss_rate::.cpu.data        0.999993                       # miss rate for demand accesses
system.l2.demand_miss_rate::total            0.999946                       # miss rate for demand accesses
system.l2.demand_misses::.cpu.inst                492                       # number of demand (read+write) misses
system.l2.demand_misses::.cpu.data            1487950                       # number of demand (read+write) misses
system.l2.demand_misses::total                1488442                       # number of demand (read+write) misses
system.l2.demand_mshr_hits::.cpu.data               4                       # number of demand (read+write) MSHR hits
system.l2.demand_mshr_hits::total                   4                       # number of demand (read+write) MSHR hits
system.l2.demand_mshr_miss_latency::.cpu.inst     32162500                       # number of demand (read+write) MSHR miss cycles
system.l2.demand_mshr_miss_latency::.cpu.data 103964861500                       # number of demand (read+write) MSHR miss cycles
system.l2.demand_mshr_miss_latency::total 103997024000                       # number of demand (read+write) MSHR miss cycles
system.l2.demand_mshr_miss_rate::.cpu.inst     0.877005                       # mshr miss rate for demand accesses
system.l2.demand_mshr_miss_rate::.cpu.data     0.999990                       # mshr miss rate for demand accesses
system.l2.demand_mshr_miss_rate::total       0.999944                       # mshr miss rate for demand accesses
system.l2.demand_mshr_misses::.cpu.inst           492                       # number of demand (read+write) MSHR misses
system.l2.demand_mshr_misses::.cpu.data       1487946                       # number of demand (read+write) MSHR misses
system.l2.demand_mshr_misses::total           1488438                       # number of demand (read+write) MSHR misses
system.l2.overall_accesses::.cpu.inst             561                       # number of overall (read+write) accesses
system.l2.overall_accesses::.cpu.data         1487961                       # number of overall (read+write) accesses
system.l2.overall_accesses::total             1488522                       # number of overall (read+write) accesses
system.l2.overall_avg_miss_latency::.cpu.inst 75370.934959                       # average overall miss latency
system.l2.overall_avg_miss_latency::.cpu.data 79871.355556                       # average overall miss latency
system.l2.overall_avg_miss_latency::total 79869.867956                       # average overall miss latency
system.l2.overall_avg_mshr_miss_latency::.cpu.inst 65370.934959                       # average overall mshr miss latency
system.l2.overall_avg_mshr_miss_latency::.cpu.data 69871.394190                       # average overall mshr miss latency
system.l2.overall_avg_mshr_miss_latency::total 69869.906573                       # average overall mshr miss latency
system.l2.overall_hits::.cpu.inst                  69                       # number of overall hits
system.l2.overall_hits::.cpu.data                  11                       # number of overall hits
system.l2.overall_hits::total                      80                       # number of overall hits
system.l2.overall_miss_latency::.cpu.inst     37082500                       # number of overall miss cycles
system.l2.overall_miss_latency::.cpu.data 118844583500                       # number of overall miss cycles
system.l2.overall_miss_latency::total    118881666000                       # number of overall miss cycles
system.l2.overall_miss_rate::.cpu.inst       0.877005                       # miss rate for overall accesses
system.l2.overall_miss_rate::.cpu.data       0.999993                       # miss rate for overall accesses
system.l2.overall_miss_rate::total           0.999946                       # miss rate for overall accesses
system.l2.overall_misses::.cpu.inst               492                       # number of overall misses
system.l2.overall_misses::.cpu.data           1487950                       # number of overall misses
system.l2.overall_misses::total               1488442                       # number of overall misses
system.l2.overall_mshr_hits::.cpu.data              4                       # number of overall MSHR hits
system.l2.overall_mshr_hits::total                  4                       # number of overall MSHR hits
system.l2.overall_mshr_miss_latency::.cpu.inst     32162500                       # number of overall MSHR miss cycles
system.l2.overall_mshr_miss_latency::.cpu.data 103964861500                       # number of overall MSHR miss cycles
system.l2.overall_mshr_miss_latency::total 103997024000                       # number of overall MSHR miss cycles
system.l2.overall_mshr_miss_rate::.cpu.inst     0.877005                       # mshr miss rate for overall accesses
system.l2.overall_mshr_miss_rate::.cpu.data     0.999990                       # mshr miss rate for overall accesses
system.l2.overall_mshr_miss_rate::total      0.999944                       # mshr miss rate for overall accesses
system.l2.overall_mshr_misses::.cpu.inst          492                       # number of overall MSHR misses
system.l2.overall_mshr_misses::.cpu.data      1487946                       # number of overall MSHR misses
system.l2.overall_mshr_misses::total          1488438                       # number of overall MSHR misses
system.l2.pwrStateResidencyTicks::UNDEFINED 174681177500                       # Cumulative time (in ticks) in various power states
system.l2.replacements                        1455670                       # number of replacements
system.l2.tags.age_task_id_blocks_1024::0           87                       # Occupied blocks per task id
system.l2.tags.age_task_id_blocks_1024::1          767                       # Occupied blocks per task id
system.l2.tags.age_task_id_blocks_1024::2         7676                       # Occupied blocks per task id
system.l2.tags.age_task_id_blocks_1024::3        24238                       # Occupied blocks per task id
system.l2.tags.avg_refs                      1.999173                       # Average number of references to valid blocks.
system.l2.tags.data_accesses                 25293630                       # Number of data accesses
system.l2.tags.occ_blocks::.cpu.inst         9.516009                       # Average occupied blocks per requestor
system.l2.tags.occ_blocks::.cpu.data     32418.408290                       # Average occupied blocks per requestor
system.l2.tags.occ_percent::.cpu.inst        0.000290                       # Average percentage of cache occupancy
system.l2.tags.occ_percent::.cpu.data        0.989331                       # Average percentage of cache occupancy
system.l2.tags.occ_percent::total            0.989622                       # Average percentage of cache occupancy
system.l2.tags.occ_task_id_blocks::1024         32768                       # Occupied blocks per task id
system.l2.tags.occ_task_id_percent::1024            1                       # Percentage of cache occupancy per task id
system.l2.tags.pwrStateResidencyTicks::UNDEFINED 174681177500                       # Cumulative time (in ticks) in various power states
system.l2.tags.sampled_refs                   1488438                       # Sample count of references to valid blocks.
system.l2.tags.tag_accesses                  25293630                       # Number of tag accesses
system.l2.tags.tagsinuse                 32427.924299                       # Cycle average of tags in use
system.l2.tags.total_refs                     2975645                       # Total number of references to valid blocks.
system.l2.tags.warmup_cycle                     77000                       # Cycle when the warmup percentage was hit.
system.l2.writebacks::.writebacks             1455093                       # number of writebacks
system.l2.writebacks::total                   1455093                       # number of writebacks
system.mem_ctrls.avgBusLat                    5000.00                       # Average bus latency per DRAM burst
system.mem_ctrls.avgGap                      59344.08                       # Average gap between requests
system.mem_ctrls.avgMemAccLat                28700.49                       # Average memory access latency per DRAM burst
system.mem_ctrls.avgPriority_.writebacks::samples   1455093.00                       # Average QoS priority value for accepted requests
system.mem_ctrls.avgPriority_.cpu.inst::samples       492.00                       # Average QoS priority value for accepted requests
system.mem_ctrls.avgPriority_.cpu.data::samples   1487946.00                       # Average QoS priority value for accepted requests
system.mem_ctrls.avgQLat                      9950.49                       # Average queueing delay per DRAM burst
system.mem_ctrls.avgRdBW                       545.34                       # Average DRAM read bandwidth in MiByte/s
system.mem_ctrls.avgRdBWSys                    545.34                       # Average system read bandwidth in MiByte/s
system.mem_ctrls.avgRdQLen                       1.00                       # Average read queue length when enqueuing
system.mem_ctrls.avgWrBW                       533.11                       # Average achieved write bandwidth in MiByte/s
system.mem_ctrls.avgWrBWSys                    533.12                       # Average system write bandwidth in MiByte/s
system.mem_ctrls.avgWrQLen                      25.36                       # Average write queue length when enqueuing
system.mem_ctrls.busUtil                         8.43                       # Data bus utilization in percentage
system.mem_ctrls.busUtilRead                     4.26                       # Data bus utilization in percentage for reads
system.mem_ctrls.busUtilWrite                    4.16                       # Data bus utilization in percentage for writes
system.mem_ctrls.bw_inst_read::.cpu.inst       180260                       # Instruction read bandwidth from this memory (bytes/s)
system.mem_ctrls.bw_inst_read::total           180260                       # Instruction read bandwidth from this memory (bytes/s)
system.mem_ctrls.bw_read::.cpu.inst            180260                       # Total read bandwidth from this memory (bytes/s)
system.mem_ctrls.bw_read::.cpu.data         545156298                       # Total read bandwidth from this memory (bytes/s)
system.mem_ctrls.bw_read::total             545336558                       # Total read bandwidth from this memory (bytes/s)
system.mem_ctrls.bw_total::.writebacks      533119557                       # Total bandwidth to/from this memory (bytes/s)
system.mem_ctrls.bw_total::.cpu.inst           180260                       # Total bandwidth to/from this memory (bytes/s)
system.mem_ctrls.bw_total::.cpu.data        545156298                       # Total bandwidth to/from this memory (bytes/s)
system.mem_ctrls.bw_total::total           1078456115                       # Total bandwidth to/from this memory (bytes/s)
system.mem_ctrls.bw_write::.writebacks      533119557                       # Write bandwidth from this memory (bytes/s)
system.mem_ctrls.bw_write::total            533119557                       # Write bandwidth from this memory (bytes/s)
system.mem_ctrls.bytesPerActivate::samples       228315                       # Bytes accessed per row activation
system.mem_ctrls.bytesPerActivate::mean    825.105105                       # Bytes accessed per row activation
system.mem_ctrls.bytesPerActivate::gmean   696.431574                       # Bytes accessed per row activation
system.mem_ctrls.bytesPerActivate::stdev   316.890858                       # Bytes accessed per row activation
system.mem_ctrls.bytesPerActivate::0-127        12447      5.45%      5.45% # Bytes accessed per row activation
system.mem_ctrls.bytesPerActivate::128-255         9133      4.00%      9.45% # Bytes accessed per row activation
system.mem_ctrls.bytesPerActivate::256-383         7953      3.48%     12.94% # Bytes accessed per row activation
system.mem_ctrls.bytesPerActivate::384-511        11007      4.82%     17.76% # Bytes accessed per row activation
system.mem_ctrls.bytesPerActivate::512-639        18456      8.08%     25.84% # Bytes accessed per row activation
system.mem_ctrls.bytesPerActivate::640-767         6421      2.81%     28.65% # Bytes accessed per row activation
system.mem_ctrls.bytesPerActivate::768-895         6135      2.69%     31.34% # Bytes accessed per row activation
system.mem_ctrls.bytesPerActivate::896-1023         9214      4.04%     35.37% # Bytes accessed per row activation
system.mem_ctrls.bytesPerActivate::1024-1151       147549     64.63%    100.00% # Bytes accessed per row activation
system.mem_ctrls.bytesPerActivate::total       228315                       # Bytes accessed per row activation
system.mem_ctrls.bytesReadDRAM               95260032                       # Total number of bytes read from DRAM
system.mem_ctrls.bytesReadSys                95260032                       # Total read bytes from the system interface side
system.mem_ctrls.bytesReadWrQ                       0                       # Total number of bytes read from write queue
system.mem_ctrls.bytesWritten                93124224                       # Total number of bytes written to DRAM
system.mem_ctrls.bytesWrittenSys             93125952                       # Total written bytes from the system interface side
system.mem_ctrls.bytes_inst_read::.cpu.inst        31488                       # Number of instructions bytes read from this memory
system.mem_ctrls.bytes_inst_read::total         31488                       # Number of instructions bytes read from this memory
system.mem_ctrls.bytes_read::.cpu.inst          31488                       # Number of bytes read from this memory
system.mem_ctrls.bytes_read::.cpu.data       95228544                       # Number of bytes read from this memory
system.mem_ctrls.bytes_read::total           95260032                       # Number of bytes read from this memory
system.mem_ctrls.bytes_written::.writebacks     93125952                       # Number of bytes written to this memory
system.mem_ctrls.bytes_written::total        93125952                       # Number of bytes written to this memory
system.mem_ctrls.masterReadAccesses::.cpu.inst          492                       # Per-master read serviced memory accesses
system.mem_ctrls.masterReadAccesses::.cpu.data      1487946                       # Per-master read serviced memory accesses
system.mem_ctrls.masterReadAvgLat::.cpu.inst     24455.79                       # Per-master read average memory access latency
system.mem_ctrls.masterReadAvgLat::.cpu.data     28701.90                       # Per-master read average memory access latency
system.mem_ctrls.masterReadBytes::.cpu.inst        31488                       # Per-master bytes read from memory
system.mem_ctrls.masterReadBytes::.cpu.data     95228544                       # Per-master bytes read from memory
[...]
system.mem_ctrls.wrQLenPdf::21                  90522                       # What write queue length does an incoming req see
system.mem_ctrls.wrQLenPdf::22                  90513                       # What write queue length does an incoming req see
system.mem_ctrls.wrQLenPdf::23                  90513                       # What write queue length does an incoming req see
system.mem_ctrls.wrQLenPdf::24                  90513                       # What write queue length does an incoming req see
system.mem_ctrls.wrQLenPdf::25                  92156                       # What write queue length does an incoming req see
system.mem_ctrls.wrQLenPdf::26                  90513                       # What write queue length does an incoming req see
system.mem_ctrls.wrQLenPdf::27                  90513                       # What write queue length does an incoming req see
system.mem_ctrls.wrQLenPdf::28                  90513                       # What write queue length does an incoming req see
system.mem_ctrls.wrQLenPdf::29                  90513                       # What write queue length does an incoming req see
system.mem_ctrls.wrQLenPdf::30                  90513                       # What write queue length does an incoming req see
system.mem_ctrls.wrQLenPdf::31                  90513                       # What write queue length does an incoming req see
system.mem_ctrls.wrQLenPdf::32                  90513                       # What write queue length does an incoming req see
system.mem_ctrls.wrQLenPdf::33                      0                       # What write queue length does an incoming req see
system.mem_ctrls.wrQLenPdf::34                      0                       # What write queue length does an incoming req see
system.mem_ctrls.wrQLenPdf::35                      0                       # What write queue length does an incoming req see
system.mem_ctrls.wrQLenPdf::36                      0                       # What write queue length does an incoming req see
system.mem_ctrls.wrQLenPdf::37                      0                       # What write queue length does an incoming req see
system.mem_ctrls.wrQLenPdf::38                      0                       # What write queue length does an incoming req see
system.mem_ctrls.wrQLenPdf::39                      0                       # What write queue length does an incoming req see
system.mem_ctrls.wrQLenPdf::40                      0                       # What write queue length does an incoming req see
system.mem_ctrls.wrQLenPdf::41                      0                       # What write queue length does an incoming req see
system.mem_ctrls.wrQLenPdf::42                      0                       # What write queue length does an incoming req see
system.mem_ctrls.wrQLenPdf::43                      0                       # What write queue length does an incoming req see
system.mem_ctrls.wrQLenPdf::44                      0                       # What write queue length does an incoming req see
system.mem_ctrls.wrQLenPdf::45                      0                       # What write queue length does an incoming req see
system.mem_ctrls.wrQLenPdf::46                      0                       # What write queue length does an incoming req see
system.mem_ctrls.wrQLenPdf::47                      0                       # What write queue length does an incoming req see
system.mem_ctrls.wrQLenPdf::48                      0                       # What write queue length does an incoming req see
system.mem_ctrls.wrQLenPdf::49                      0                       # What write queue length does an incoming req see
system.mem_ctrls.wrQLenPdf::50                      0                       # What write queue length does an incoming req see
system.mem_ctrls.wrQLenPdf::51                      0                       # What write queue length does an incoming req see
system.mem_ctrls.wrQLenPdf::52                      0                       # What write queue length does an incoming req see
system.mem_ctrls.wrQLenPdf::53                      0                       # What write queue length does an incoming req see
system.mem_ctrls.wrQLenPdf::54                      0                       # What write queue length does an incoming req see
system.mem_ctrls.wrQLenPdf::55                      0                       # What write queue length does an incoming req see
system.mem_ctrls.wrQLenPdf::56                      0                       # What write queue length does an incoming req see
system.mem_ctrls.wrQLenPdf::57                      0                       # What write queue length does an incoming req see
system.mem_ctrls.wrQLenPdf::58                      0                       # What write queue length does an incoming req see
system.mem_ctrls.wrQLenPdf::59                      0                       # What write queue length does an incoming req see
system.mem_ctrls.wrQLenPdf::60                      0                       # What write queue length does an incoming req see
system.mem_ctrls.wrQLenPdf::61                      0                       # What write queue length does an incoming req see
system.mem_ctrls.wrQLenPdf::62                      0                       # What write queue length does an incoming req see
system.mem_ctrls.wrQLenPdf::63                      0                       # What write queue length does an incoming req see
system.mem_ctrls.writeBursts                  1455093                       # Number of DRAM write bursts, including those merged in the write queue
system.mem_ctrls.writePktSize::0                    0                       # Write request sizes (log2)
system.mem_ctrls.writePktSize::1                    0                       # Write request sizes (log2)
system.mem_ctrls.writePktSize::2                    0                       # Write request sizes (log2)
system.mem_ctrls.writePktSize::3                    0                       # Write request sizes (log2)
system.mem_ctrls.writePktSize::4                    0                       # Write request sizes (log2)
system.mem_ctrls.writePktSize::5                    0                       # Write request sizes (log2)
system.mem_ctrls.writePktSize::6              1455093                       # Write request sizes (log2)
system.mem_ctrls.writeReqs                    1455093                       # Number of write requests accepted
system.mem_ctrls.writeRowHitRate                92.80                       # Row buffer hit rate for writes
system.mem_ctrls.writeRowHits                 1350341                       # Number of row buffer hits during writes
system.mem_ctrls_0.actBackEnergy          41502154290                       # Energy for active background per rank (pJ)
system.mem_ctrls_0.actEnergy                815566500                       # Energy for activate commands per rank (pJ)
system.mem_ctrls_0.actPowerDownEnergy               0                       # Energy for active power-down per rank (pJ)
system.mem_ctrls_0.averagePower            559.780807                       # Core power per rank (mW)
system.mem_ctrls_0.memoryStateTime::IDLE  82316140000                       # Time in different power states
system.mem_ctrls_0.memoryStateTime::REF    5832840000                       # Time in different power states
system.mem_ctrls_0.memoryStateTime::SREF            0                       # Time in different power states
system.mem_ctrls_0.memoryStateTime::PRE_PDN            0                       # Time in different power states
system.mem_ctrls_0.memoryStateTime::ACT   86532197500                       # Time in different power states
system.mem_ctrls_0.memoryStateTime::ACT_PDN            0                       # Time in different power states
system.mem_ctrls_0.preBackEnergy          32128389600                       # Energy for precharge background per rank (pJ)
system.mem_ctrls_0.preEnergy                433483875                       # Energy for precharge commands per rank (pJ)
system.mem_ctrls_0.prePowerDownEnergy               0                       # Energy for precharge power-down per rank (pJ)
system.mem_ctrls_0.readEnergy              5315694300                       # Energy for read commands per rank (pJ)
system.mem_ctrls_0.refreshEnergy         13788833760.000002                       # Energy for refresh commands per rank (pJ)
system.mem_ctrls_0.selfRefreshEnergy                0                       # Energy for self refresh per rank (pJ)
system.mem_ctrls_0.totalEnergy            97783170465                       # Total energy per rank (pJ)
system.mem_ctrls_0.totalIdleTime                    0                       # Total Idle time Per DRAM Rank
system.mem_ctrls_0.writeEnergy             3799048140                       # Energy for write commands per rank (pJ)
system.mem_ctrls_1.actBackEnergy          41522434320                       # Energy for active background per rank (pJ)
system.mem_ctrls_1.actEnergy                814609740                       # Energy for activate commands per rank (pJ)
system.mem_ctrls_1.actPowerDownEnergy               0                       # Energy for active power-down per rank (pJ)
system.mem_ctrls_1.averagePower            559.752805                       # Core power per rank (mW)
system.mem_ctrls_1.memoryStateTime::IDLE  82279430250                       # Time in different power states
system.mem_ctrls_1.memoryStateTime::REF    5832840000                       # Time in different power states
system.mem_ctrls_1.memoryStateTime::SREF            0                       # Time in different power states
system.mem_ctrls_1.memoryStateTime::PRE_PDN            0                       # Time in different power states
system.mem_ctrls_1.memoryStateTime::ACT   86568907250                       # Time in different power states
system.mem_ctrls_1.memoryStateTime::ACT_PDN            0                       # Time in different power states
system.mem_ctrls_1.preBackEnergy          32111311680                       # Energy for precharge background per rank (pJ)
system.mem_ctrls_1.preEnergy                432971550                       # Energy for precharge commands per rank (pJ)
system.mem_ctrls_1.prePowerDownEnergy               0                       # Energy for precharge power-down per rank (pJ)
system.mem_ctrls_1.readEnergy              5311753020                       # Energy for read commands per rank (pJ)
system.mem_ctrls_1.refreshEnergy         13788833760.000002                       # Energy for refresh commands per rank (pJ)
system.mem_ctrls_1.selfRefreshEnergy                0                       # Energy for self refresh per rank (pJ)
system.mem_ctrls_1.totalEnergy            97778279130                       # Total energy per rank (pJ)
system.mem_ctrls_1.totalIdleTime                    0                       # Total Idle time Per DRAM Rank
system.mem_ctrls_1.writeEnergy             3796365060                       # Energy for write commands per rank (pJ)
system.membus.pkt_count_system.l2.mem_side::system.mem_ctrls.port      4432200                       # Packet count per connected master and slave (bytes)
system.membus.pkt_count::total                4432200                       # Packet count per connected master and slave (bytes)
system.membus.pkt_size_system.l2.mem_side::system.mem_ctrls.port    188385984                       # Cumulative packet size per connected master and slave (bytes)
system.membus.pkt_size::total               188385984                       # Cumulative packet size per connected master and slave (bytes)
system.membus.pwrStateResidencyTicks::UNDEFINED 174681177500                       # Cumulative time (in ticks) in various power states
system.membus.reqLayer0.occupancy          9359337500                       # Layer occupancy (ticks)
system.membus.reqLayer0.utilization               5.4                       # Layer utilization (%)
system.membus.respLayer1.occupancy         7843350000                       # Layer occupancy (ticks)
system.membus.respLayer1.utilization              4.5                       # Layer utilization (%)
system.membus.snoopTraffic                          0                       # Total snoop traffic (bytes)
system.membus.snoop_fanout::samples           1488438                       # Request fanout histogram
system.membus.snoop_fanout::mean                    0                       # Request fanout histogram
system.membus.snoop_fanout::stdev                   0                       # Request fanout histogram
system.membus.snoop_fanout::underflows              0      0.00%      0.00% # Request fanout histogram
system.membus.snoop_fanout::0                 1488438    100.00%    100.00% # Request fanout histogram
system.membus.snoop_fanout::1                       0      0.00%    100.00% # Request fanout histogram
system.membus.snoop_fanout::overflows               0      0.00%    100.00% # Request fanout histogram
system.membus.snoop_fanout::min_value               0                       # Request fanout histogram
system.membus.snoop_fanout::max_value               0                       # Request fanout histogram
system.membus.snoop_fanout::total             1488438                       # Request fanout histogram
system.membus.snoop_filter.hit_multi_requests            0                       # Number of requests hitting in the snoop filter with multiple (>1) holders of the requested data.
system.membus.snoop_filter.hit_multi_snoops            0                       # Number of snoops hitting in the snoop filter with multiple (>1) holders of the requested data.
system.membus.snoop_filter.hit_single_requests      1455324                       # Number of requests hitting in the snoop filter with a single holder of the requested data.
system.membus.snoop_filter.hit_single_snoops            0                       # Number of snoops hitting in the snoop filter with a single holder of the requested data.
system.membus.snoop_filter.tot_requests       2943762                       # Total number of requests made to the snoop filter.
system.membus.snoop_filter.tot_snoops               0                       # Total number of snoops made to the snoop filter.
system.membus.snoops                                0                       # Total snoops (count)
system.membus.trans_dist::ReadResp                591                       # Transaction distribution
system.membus.trans_dist::WritebackDirty      1455093                       # Transaction distribution
system.membus.trans_dist::CleanEvict              231                       # Transaction distribution
system.membus.trans_dist::ReadExReq           1487847                       # Transaction distribution
system.membus.trans_dist::ReadExResp          1487847                       # Transaction distribution
system.membus.trans_dist::ReadSharedReq           591                       # Transaction distribution
system.tol2bus.pkt_count_system.cpu.icache.mem_side::system.l2.cpu_side         1338                       # Packet count per connected master and slave (bytes)
system.tol2bus.pkt_count_system.cpu.dcache.mem_side::system.l2.cpu_side      4462859                       # Packet count per connected master and slave (bytes)
system.tol2bus.pkt_count::total               4464197                       # Packet count per connected master and slave (bytes)
system.tol2bus.pkt_size_system.cpu.icache.mem_side::system.l2.cpu_side        49728                       # Cumulative packet size per connected master and slave (bytes)
system.tol2bus.pkt_size_system.cpu.dcache.mem_side::system.l2.cpu_side    190387200                       # Cumulative packet size per connected master and slave (bytes)
system.tol2bus.pkt_size::total              190436928                       # Cumulative packet size per connected master and slave (bytes)
system.tol2bus.pwrStateResidencyTicks::UNDEFINED 174681177500                       # Cumulative time (in ticks) in various power states
system.tol2bus.reqLayer0.occupancy         2974892500                       # Layer occupancy (ticks)
system.tol2bus.reqLayer0.utilization              1.7                       # Layer utilization (%)
system.tol2bus.respLayer0.occupancy            841500                       # Layer occupancy (ticks)
system.tol2bus.respLayer0.utilization             0.0                       # Layer utilization (%)
system.tol2bus.respLayer1.occupancy        2231943496                       # Layer occupancy (ticks)
system.tol2bus.respLayer1.utilization             1.3                       # Layer utilization (%)
system.tol2bus.snoopTraffic                  93125952                       # Total snoop traffic (bytes)
system.tol2bus.snoop_fanout::samples          2944192                       # Request fanout histogram
system.tol2bus.snoop_fanout::mean            0.000127                       # Request fanout histogram
system.tol2bus.snoop_fanout::stdev           0.011300                       # Request fanout histogram
system.tol2bus.snoop_fanout::underflows             0      0.00%      0.00% # Request fanout histogram
system.tol2bus.snoop_fanout::0                2943819     99.99%     99.99% # Request fanout histogram
system.tol2bus.snoop_fanout::1                    372      0.01%    100.00% # Request fanout histogram
system.tol2bus.snoop_fanout::2                      1      0.00%    100.00% # Request fanout histogram
system.tol2bus.snoop_fanout::overflows              0      0.00%    100.00% # Request fanout histogram
system.tol2bus.snoop_fanout::min_value              0                       # Request fanout histogram
system.tol2bus.snoop_fanout::max_value              2                       # Request fanout histogram
system.tol2bus.snoop_fanout::total            2944192                       # Request fanout histogram
system.tol2bus.snoop_filter.hit_multi_requests           26                       # Number of requests hitting in the snoop filter with multiple (>1) holders of the requested data.
system.tol2bus.snoop_filter.hit_multi_snoops            1                       # Number of snoops hitting in the snoop filter with multiple (>1) holders of the requested data.
system.tol2bus.snoop_filter.hit_single_requests      1487154                       # Number of requests hitting in the snoop filter with a single holder of the requested data.
system.tol2bus.snoop_filter.hit_single_snoops          345                       # Number of snoops hitting in the snoop filter with a single holder of the requested data.
system.tol2bus.snoop_filter.tot_requests      2975675                       # Total number of requests made to the snoop filter.
system.tol2bus.snoop_filter.tot_snoops            346                       # Total number of snoops made to the snoop filter.
system.tol2bus.snoops                         1455670                       # Total snoops (count)
system.tol2bus.trans_dist::ReadResp               675                       # Transaction distribution
system.tol2bus.trans_dist::WritebackDirty      2941932                       # Transaction distribution
system.tol2bus.trans_dist::WritebackClean          216                       # Transaction distribution
system.tol2bus.trans_dist::CleanEvict             675                       # Transaction distribution
system.tol2bus.trans_dist::ReadExReq          1487847                       # Transaction distribution
system.tol2bus.trans_dist::ReadExResp         1487847                       # Transaction distribution
system.tol2bus.trans_dist::ReadCleanReq           561                       # Transaction distribution
system.tol2bus.trans_dist::ReadSharedReq          114                       # Transaction distribution
system.voltage_domain.voltage                       1                       # Voltage in Volts

---------- End Simulation Statistics   ----------
