
---------- Begin Simulation Statistics ----------
final_tick                               371562453000                       # Number of ticks from beginning of simulation (restored from checkpoints and never reset)
host_inst_rate                                 101200                       # Simulator instruction rate (inst/s)
host_mem_usage                                 720064                       # Number of bytes of host memory used
host_op_rate                                   186387                       # Simulator op (including micro ops) rate (op/s)
host_seconds                                   988.14                       # Real time elapsed on the host
host_tick_rate                              376021207                       # Simulator tick rate (ticks/s)
sim_freq                                 1000000000000                       # Frequency of simulated ticks
sim_insts                                   100000001                       # Number of instructions simulated
sim_ops                                     184176409                       # Number of ops (including micro ops) simulated
sim_seconds                                  0.371562                       # Number of seconds simulated
sim_ticks                                371562453000                       # Number of ticks simulated
system.cpu.branchPred.BTBCorrect                    0                       # Number of correct BTB predictions (this stat may not work properly.
system.cpu.branchPred.BTBHitPct             99.955726                       # BTB Hit Percentage
system.cpu.branchPred.BTBHits                10561266                       # Number of BTB hits
system.cpu.branchPred.BTBLookups             10565944                       # Number of BTB lookups
system.cpu.branchPred.RASInCorrect                  5                       # Number of incorrect RAS predictions.
system.cpu.branchPred.condIncorrect              1454                       # Number of conditional branches incorrect
system.cpu.branchPred.condPredicted          10562274                       # Number of conditional branches predicted
system.cpu.branchPred.indirectHits                 29                       # Number of indirect target hits.
system.cpu.branchPred.indirectLookups             199                       # Number of indirect predictor lookups.
system.cpu.branchPred.indirectMisses              170                       # Number of indirect misses.
system.cpu.branchPred.lookups                10570552                       # Number of BP lookups
system.cpu.branchPred.usedRAS                    2706                       # Number of times the RAS was used to get a target.
system.cpu.branchPredindirectMispredicted          101                       # Number of mispredicted indirect branches.
system.cpu.committedInsts                   100000001                       # Number of instructions committed
system.cpu.committedOps                     184176409                       # Number of ops (including micro ops) committed
system.cpu.cpi                               3.715624                       # CPI: cycles per instruction
system.cpu.discardedOps                          4265                       # Number of ops (including micro ops) which were discarded before commit
system.cpu.dtb.accesses                             0                       # DTB accesses
system.cpu.dtb.align_faults                         0                       # Number of TLB faults due to alignment restrictions
system.cpu.dtb.domain_faults                        0                       # Number of TLB faults due to domain restrictions
system.cpu.dtb.flush_entries                        0                       # Number of entries that have been flushed from TLB
system.cpu.dtb.flush_tlb                            0                       # Number of times complete TLB was flushed
system.cpu.dtb.flush_tlb_asid                       0                       # Number of times TLB was flushed by ASID
system.cpu.dtb.flush_tlb_mva                        0                       # Number of times TLB was flushed by MVA
system.cpu.dtb.flush_tlb_mva_asid                   0                       # Number of times TLB was flushed by MVA & ASID
system.cpu.dtb.hits                                 0                       # DTB hits
system.cpu.dtb.inst_accesses                        0                       # ITB inst accesses
system.cpu.dtb.inst_hits                            0                       # ITB inst hits
system.cpu.dtb.inst_misses                          0                       # ITB inst misses
system.cpu.dtb.misses                               0                       # DTB misses
system.cpu.dtb.perms_faults                         0                       # Number of TLB faults due to permissions restrictions
system.cpu.dtb.prefetch_faults                      0                       # Number of TLB faults due to prefetch
system.cpu.dtb.read_accesses                        0                       # DTB read accesses
system.cpu.dtb.read_hits                            0                       # DTB read hits
system.cpu.dtb.read_misses                          0                       # DTB read misses
system.cpu.dtb.stage2_mmu.stage2_tlb.accesses            0                       # DTB accesses
system.cpu.dtb.stage2_mmu.stage2_tlb.align_faults            0                       # Number of TLB faults due to alignment restrictions
system.cpu.dtb.stage2_mmu.stage2_tlb.domain_faults            0                       # Number of TLB faults due to domain restrictions
system.cpu.dtb.stage2_mmu.stage2_tlb.flush_entries            0                       # Number of entries that have been flushed from TLB
system.cpu.dtb.stage2_mmu.stage2_tlb.flush_tlb            0                       # Number of times complete TLB was flushed
system.cpu.dtb.stage2_mmu.stage2_tlb.flush_tlb_asid            0                       # Number of times TLB was flushed by ASID
system.cpu.dtb.stage2_mmu.stage2_tlb.flush_tlb_mva            0                       # Number of times TLB was flushed by MVA
system.cpu.dtb.stage2_mmu.stage2_tlb.flush_tlb_mva_asid            0                       # Number of times TLB was flushed by MVA & ASID
system.cpu.dtb.stage2_mmu.stage2_tlb.hits            0                       # DTB hits
system.cpu.dtb.stage2_mmu.stage2_tlb.inst_accesses            0                       # ITB inst accesses
system.cpu.dtb.stage2_mmu.stage2_tlb.inst_hits            0                       # ITB inst hits
system.cpu.dtb.stage2_mmu.stage2_tlb.inst_misses            0                       # ITB inst misses
system.cpu.dtb.stage2_mmu.stage2_tlb.misses            0                       # DTB misses
system.cpu.dtb.stage2_mmu.stage2_tlb.perms_faults            0                       # Number of TLB faults due to permissions restrictions
system.cpu.dtb.stage2_mmu.stage2_tlb.prefetch_faults            0                       # Number of TLB faults due to prefetch
system.cpu.dtb.stage2_mmu.stage2_tlb.read_accesses            0                       # DTB read accesses
system.cpu.dtb.stage2_mmu.stage2_tlb.read_hits            0                       # DTB read hits
system.cpu.dtb.stage2_mmu.stage2_tlb.read_misses            0                       # DTB read misses
system.cpu.dtb.stage2_mmu.stage2_tlb.walker.walkRequestOrigin_Requested::Data            0                       # Table walker requests started/completed, data/inst
system.cpu.dtb.stage2_mmu.stage2_tlb.walker.walkRequestOrigin_Requested::Inst            0                       # Table walker requests started/completed, data/inst
system.cpu.dtb.stage2_mmu.stage2_tlb.walker.walkRequestOrigin_Requested::total            0                       # Table walker requests started/completed, data/inst
system.cpu.dtb.stage2_mmu.stage2_tlb.walker.walkRequestOrigin_Completed::Data            0                       # Table walker requests started/completed, data/inst
system.cpu.dtb.stage2_mmu.stage2_tlb.walker.walkRequestOrigin_Completed::Inst            0                       # Table walker requests started/completed, data/inst
system.cpu.dtb.stage2_mmu.stage2_tlb.walker.walkRequestOrigin_Completed::total            0                       # Table walker requests started/completed, data/inst
system.cpu.dtb.stage2_mmu.stage2_tlb.walker.walkRequestOrigin::total            0                       # Table walker requests started/completed, data/inst
system.cpu.dtb.stage2_mmu.stage2_tlb.walker.walks            0                       # Table walker walks requested
system.cpu.dtb.stage2_mmu.stage2_tlb.write_accesses            0                       # DTB write accesses
system.cpu.dtb.stage2_mmu.stage2_tlb.write_hits            0                       # DTB write hits
system.cpu.dtb.stage2_mmu.stage2_tlb.write_misses            0                       # DTB write misses
system.cpu.dtb.walker.walkRequestOrigin_Requested::Data            0                       # Table walker requests started/completed, data/inst
system.cpu.dtb.walker.walkRequestOrigin_Requested::Inst            0                       # Table walker requests started/completed, data/inst
system.cpu.dtb.walker.walkRequestOrigin_Requested::total            0                       # Table walker requests started/completed, data/inst
system.cpu.dtb.walker.walkRequestOrigin_Completed::Data            0                       # Table walker requests started/completed, data/inst
system.cpu.dtb.walker.walkRequestOrigin_Completed::Inst            0                       # Table walker requests started/completed, data/inst
system.cpu.dtb.walker.walkRequestOrigin_Completed::total            0                       # Table walker requests started/completed, data/inst
system.cpu.dtb.walker.walkRequestOrigin::total            0                       # Table walker requests started/completed, data/inst
system.cpu.dtb.walker.walks                         0                       # Table walker walks requested
system.cpu.dtb.write_accesses                       0                       # DTB write accesses
system.cpu.dtb.write_hits                           0                       # DTB write hits
system.cpu.dtb.write_misses                         0                       # DTB write misses
system.cpu.fetch2.amo_instructions                  0                       # Number of memory atomic instructions successfully decoded
system.cpu.fetch2.fp_instructions                   0                       # Number of floating point instructions successfully decoded
system.cpu.fetch2.int_instructions           44894140                       # Number of integer instructions successfully decoded
system.cpu.fetch2.load_instructions           2086331                       # Number of memory load instructions successfully decoded
system.cpu.fetch2.store_instructions           169186                       # Number of memory store instructions successfully decoded
system.cpu.fetch2.vec_instructions                  0                       # Number of SIMD instructions successfully decoded
system.cpu.idleCycles                       154306040                       # Total number of cycles that the object has spent stopped
system.cpu.ipc                               0.269134                       # IPC: instructions per cycle
system.cpu.itb.accesses                             0                       # DTB accesses
system.cpu.itb.align_faults                         0                       # Number of TLB faults due to alignment restrictions
system.cpu.itb.domain_faults                        0                       # Number of TLB faults due to domain restrictions
system.cpu.itb.flush_entries                        0                       # Number of entries that have been flushed from TLB
system.cpu.itb.flush_tlb                            0                       # Number of times complete TLB was flushed
system.cpu.itb.flush_tlb_asid                       0                       # Number of times TLB was flushed by ASID
system.cpu.itb.flush_tlb_mva                        0                       # Number of times TLB was flushed by MVA
system.cpu.itb.flush_tlb_mva_asid                   0                       # Number of times TLB was flushed by MVA & ASID
system.cpu.itb.hits                                 0                       # DTB hits
system.cpu.itb.inst_accesses                        0                       # ITB inst accesses
system.cpu.itb.inst_hits                            0                       # ITB inst hits
system.cpu.itb.inst_misses                          0                       # ITB inst misses
system.cpu.itb.misses                               0                       # DTB misses
system.cpu.itb.perms_faults                         0                       # Number of TLB faults due to permissions restrictions
system.cpu.itb.prefetch_faults                      0                       # Number of TLB faults due to prefetch
system.cpu.itb.read_accesses                        0                       # DTB read accesses
system.cpu.itb.read_hits                            0                       # DTB read hits
system.cpu.itb.read_misses                          0                       # DTB read misses
system.cpu.itb.stage2_mmu.stage2_tlb.accesses            0                       # DTB accesses
system.cpu.itb.stage2_mmu.stage2_tlb.align_faults            0                       # Number of TLB faults due to alignment restrictions
system.cpu.itb.stage2_mmu.stage2_tlb.domain_faults            0                       # Number of TLB faults due to domain restrictions
system.cpu.itb.stage2_mmu.stage2_tlb.flush_entries            0                       # Number of entries that have been flushed from TLB
system.cpu.itb.stage2_mmu.stage2_tlb.flush_tlb            0                       # Number of times complete TLB was flushed
system.cpu.itb.stage2_mmu.stage2_tlb.flush_tlb_asid            0                       # Number of times TLB was flushed by ASID
system.cpu.itb.stage2_mmu.stage2_tlb.flush_tlb_mva            0                       # Number of times TLB was flushed by MVA
system.cpu.itb.stage2_mmu.stage2_tlb.flush_tlb_mva_asid            0                       # Number of times TLB was flushed by MVA & ASID
system.cpu.itb.stage2_mmu.stage2_tlb.hits            0                       # DTB hits
system.cpu.itb.stage2_mmu.stage2_tlb.inst_accesses            0                       # ITB inst accesses
system.cpu.itb.stage2_mmu.stage2_tlb.inst_hits            0                       # ITB inst hits
system.cpu.itb.stage2_mmu.stage2_tlb.inst_misses            0                       # ITB inst misses
system.cpu.itb.stage2_mmu.stage2_tlb.misses            0                       # DTB misses
system.cpu.itb.stage2_mmu.stage2_tlb.perms_faults            0                       # Number of TLB faults due to permissions restrictions
system.cpu.itb.stage2_mmu.stage2_tlb.prefetch_faults            0                       # Number of TLB faults due to prefetch
system.cpu.itb.stage2_mmu.stage2_tlb.read_accesses            0                       # DTB read accesses
system.cpu.itb.stage2_mmu.stage2_tlb.read_hits            0                       # DTB read hits
system.cpu.itb.stage2_mmu.stage2_tlb.read_misses            0                       # DTB read misses
system.cpu.itb.stage2_mmu.stage2_tlb.walker.walkRequestOrigin_Requested::Data            0                       # Table walker requests started/completed, data/inst
system.cpu.itb.stage2_mmu.stage2_tlb.walker.walkRequestOrigin_Requested::Inst            0                       # Table walker requests started/completed, data/inst
system.cpu.itb.stage2_mmu.stage2_tlb.walker.walkRequestOrigin_Requested::total            0                       # Table walker requests started/completed, data/inst
system.cpu.itb.stage2_mmu.stage2_tlb.walker.walkRequestOrigin_Completed::Data            0                       # Table walker requests started/completed, data/inst
system.cpu.itb.stage2_mmu.stage2_tlb.walker.walkRequestOrigin_Completed::Inst            0                       # Table walker requests started/completed, data/inst
system.cpu.itb.stage2_mmu.stage2_tlb.walker.walkRequestOrigin_Completed::total            0                       # Table walker requests started/completed, data/inst
system.cpu.itb.stage2_mmu.stage2_tlb.walker.walkRequestOrigin::total            0                       # Table walker requests started/completed, data/inst
system.cpu.itb.stage2_mmu.stage2_tlb.walker.walks            0                       # Table walker walks requested
system.cpu.itb.stage2_mmu.stage2_tlb.write_accesses            0                       # DTB write accesses
system.cpu.itb.stage2_mmu.stage2_tlb.write_hits            0                       # DTB write hits
system.cpu.itb.stage2_mmu.stage2_tlb.write_misses            0                       # DTB write misses
system.cpu.itb.walker.walkRequestOrigin_Requested::Data            0                       # Table walker requests started/completed, data/inst
system.cpu.itb.walker.walkRequestOrigin_Requested::Inst            0                       # Table walker requests started/completed, data/inst
system.cpu.itb.walker.walkRequestOrigin_Requested::total            0                       # Table walker requests started/completed, data/inst
system.cpu.itb.walker.walkRequestOrigin_Completed::Data            0                       # Table walker requests started/completed, data/inst
system.cpu.itb.walker.walkRequestOrigin_Completed::Inst            0                       # Table walker requests started/completed, data/inst
system.cpu.itb.walker.walkRequestOrigin_Completed::total            0                       # Table walker requests started/completed, data/inst
system.cpu.itb.walker.walkRequestOrigin::total            0                       # Table walker requests started/completed, data/inst
system.cpu.itb.walker.walks                         0                       # Table walker walks requested
system.cpu.itb.write_accesses                       0                       # DTB write accesses
system.cpu.itb.write_hits                           0                       # DTB write hits
system.cpu.itb.write_misses                         0                       # DTB write misses
system.cpu.numCycles                        371562453                       # number of cpu cycles simulated
system.cpu.numFetchSuspends                         0                       # Number of times Execute suspended instruction fetching
system.cpu.numWorkItemsCompleted                    0                       # number of work items this cpu completed
system.cpu.numWorkItemsStarted                      0                       # number of work items this cpu started
system.cpu.op_class_0::No_OpClass                   0      0.00%      0.00% # Class of committed instruction
system.cpu.op_class_0::IntAlu                97640473     53.01%     53.01% # Class of committed instruction
system.cpu.op_class_0::IntMult                 114699      0.06%     53.08% # Class of committed instruction
system.cpu.op_class_0::IntDiv                       0      0.00%     53.08% # Class of committed instruction
system.cpu.op_class_0::FloatAdd                     0      0.00%     53.08% # Class of committed instruction
system.cpu.op_class_0::FloatCmp                     0      0.00%     53.08% # Class of committed instruction
system.cpu.op_class_0::FloatCvt                     0      0.00%     53.08% # Class of committed instruction
system.cpu.op_class_0::FloatMult                    0      0.00%     53.08% # Class of committed instruction
system.cpu.op_class_0::FloatMultAcc                 0      0.00%     53.08% # Class of committed instruction
system.cpu.op_class_0::FloatDiv                     0      0.00%     53.08% # Class of committed instruction
system.cpu.op_class_0::FloatMisc                    0      0.00%     53.08% # Class of committed instruction
system.cpu.op_class_0::FloatSqrt                    0      0.00%     53.08% # Class of committed instruction
system.cpu.op_class_0::SimdAdd                      8      0.00%     53.08% # Class of committed instruction
system.cpu.op_class_0::SimdAddAcc                   0      0.00%     53.08% # Class of committed instruction
system.cpu.op_class_0::SimdAlu                      8      0.00%     53.08% # Class of committed instruction
system.cpu.op_class_0::SimdCmp                      6      0.00%     53.08% # Class of committed instruction
system.cpu.op_class_0::SimdCvt                      0      0.00%     53.08% # Class of committed instruction
system.cpu.op_class_0::SimdMisc                     1      0.00%     53.08% # Class of committed instruction
system.cpu.op_class_0::SimdMult                     0      0.00%     53.08% # Class of committed instruction
system.cpu.op_class_0::SimdMultAcc                  0      0.00%     53.08% # Class of committed instruction
system.cpu.op_class_0::SimdShift                    0      0.00%     53.08% # Class of committed instruction
system.cpu.op_class_0::SimdShiftAcc                 0      0.00%     53.08% # Class of committed instruction
system.cpu.op_class_0::SimdDiv                      0      0.00%     53.08% # Class of committed instruction
system.cpu.op_class_0::SimdSqrt                     0      0.00%     53.08% # Class of committed instruction
system.cpu.op_class_0::SimdFloatAdd                 0      0.00%     53.08% # Class of committed instruction
system.cpu.op_class_0::SimdFloatAlu                 0      0.00%     53.08% # Class of committed instruction
system.cpu.op_class_0::SimdFloatCmp                 0      0.00%     53.08% # Class of committed instruction
system.cpu.op_class_0::SimdFloatCvt                 0      0.00%     53.08% # Class of committed instruction
system.cpu.op_class_0::SimdFloatDiv                 0      0.00%     53.08% # Class of committed instruction
system.cpu.op_class_0::SimdFloatMisc                6      0.00%     53.08% # Class of committed instruction
system.cpu.op_class_0::SimdFloatMult                0      0.00%     53.08% # Class of committed instruction
system.cpu.op_class_0::SimdFloatMultAcc             0      0.00%     53.08% # Class of committed instruction
system.cpu.op_class_0::SimdFloatSqrt                0      0.00%     53.08% # Class of committed instruction
system.cpu.op_class_0::SimdReduceAdd                0      0.00%     53.08% # Class of committed instruction
system.cpu.op_class_0::SimdReduceAlu                0      0.00%     53.08% # Class of committed instruction
system.cpu.op_class_0::SimdReduceCmp                0      0.00%     53.08% # Class of committed instruction
system.cpu.op_class_0::SimdFloatReduceAdd            0      0.00%     53.08% # Class of committed instruction
system.cpu.op_class_0::SimdFloatReduceCmp            0      0.00%     53.08% # Class of committed instruction
system.cpu.op_class_0::SimdAes                      0      0.00%     53.08% # Class of committed instruction
system.cpu.op_class_0::SimdAesMix                   0      0.00%     53.08% # Class of committed instruction
system.cpu.op_class_0::SimdSha1Hash                 0      0.00%     53.08% # Class of committed instruction
system.cpu.op_class_0::SimdSha1Hash2                0      0.00%     53.08% # Class of committed instruction
system.cpu.op_class_0::SimdSha256Hash               0      0.00%     53.08% # Class of committed instruction
system.cpu.op_class_0::SimdSha256Hash2              0      0.00%     53.08% # Class of committed instruction
system.cpu.op_class_0::SimdShaSigma2                0      0.00%     53.08% # Class of committed instruction
system.cpu.op_class_0::SimdShaSigma3                0      0.00%     53.08% # Class of committed instruction
system.cpu.op_class_0::SimdPredAlu                  0      0.00%     53.08% # Class of committed instruction
system.cpu.op_class_0::MemRead                2082588      1.13%     54.21% # Class of committed instruction
system.cpu.op_class_0::MemWrite              84338620     45.79%    100.00% # Class of committed instruction
system.cpu.op_class_0::FloatMemRead                 0      0.00%    100.00% # Class of committed instruction
system.cpu.op_class_0::FloatMemWrite                0      0.00%    100.00% # Class of committed instruction
system.cpu.op_class_0::IprAccess                    0      0.00%    100.00% # Class of committed instruction
system.cpu.op_class_0::InstPrefetch                 0      0.00%    100.00% # Class of committed instruction
system.cpu.op_class_0::total                184176409                       # Class of committed instruction
system.cpu.tickCycles                       217256413                       # Number of cycles that the object actually ticked
system.cpu.workload.numSyscalls                    19                       # Number of system calls
system.membus.snoop_filter.hit_multi_requests            0                       # Number of requests hitting in the snoop filter with multiple (>1) holders of the requested data.
system.membus.snoop_filter.hit_multi_snoops            0                       # Number of snoops hitting in the snoop filter with multiple (>1) holders of the requested data.
system.membus.snoop_filter.hit_single_requests      1308044                       # Number of requests hitting in the snoop filter with a single holder of the requested data.
system.membus.snoop_filter.hit_single_snoops            0                       # Number of snoops hitting in the snoop filter with a single holder of the requested data.
system.membus.snoop_filter.tot_requests       2624338                       # Total number of requests made to the snoop filter.
system.membus.snoop_filter.tot_snoops               0                       # Total number of snoops made to the snoop filter.
system.tol2bus.snoop_filter.hit_multi_requests          130                       # Number of requests hitting in the snoop filter with multiple (>1) holders of the requested data.
system.tol2bus.snoop_filter.hit_multi_snoops            0                       # Number of snoops hitting in the snoop filter with multiple (>1) holders of the requested data.
system.tol2bus.snoop_filter.hit_single_requests      1316783                       # Number of requests hitting in the snoop filter with a single holder of the requested data.
system.tol2bus.snoop_filter.hit_single_snoops          129                       # Number of snoops hitting in the snoop filter with a single holder of the requested data.
system.tol2bus.snoop_filter.tot_requests      2633758                       # Total number of requests made to the snoop filter.
system.tol2bus.snoop_filter.tot_snoops            129                       # Total number of snoops made to the snoop filter.
system.membus.pwrStateResidencyTicks::UNDEFINED 371562453000                       # Cumulative time (in ticks) in various power states
system.membus.trans_dist::ReadResp                415                       # Transaction distribution
system.membus.trans_dist::WritebackDirty      1307714                       # Transaction distribution
system.membus.trans_dist::CleanEvict              324                       # Transaction distribution
system.membus.trans_dist::ReadExReq           1315885                       # Transaction distribution
system.membus.trans_dist::ReadExResp          1315885                       # Transaction distribution
system.membus.trans_dist::ReadSharedReq           415                       # Transaction distribution
system.membus.pkt_count_system.l2.mem_side::system.mem_ctrls.port      3940638                       # Packet count per connected master and slave (bytes)
system.membus.pkt_count::total                3940638                       # Packet count per connected master and slave (bytes)
system.membus.pkt_size_system.l2.mem_side::system.mem_ctrls.port    671747584                       # Cumulative packet size per connected master and slave (bytes)
system.membus.pkt_size::total               671747584                       # Cumulative packet size per connected master and slave (bytes)
system.membus.snoops                                0                       # Total snoops (count)
system.membus.snoopTraffic                          0                       # Total snoop traffic (bytes)
system.membus.snoop_fanout::samples           1316300                       # Request fanout histogram
system.membus.snoop_fanout::mean                    0                       # Request fanout histogram
system.membus.snoop_fanout::stdev                   0                       # Request fanout histogram
system.membus.snoop_fanout::underflows              0      0.00%      0.00% # Request fanout histogram
system.membus.snoop_fanout::0                 1316300    100.00%    100.00% # Request fanout histogram
system.membus.snoop_fanout::1                       0      0.00%    100.00% # Request fanout histogram
system.membus.snoop_fanout::overflows               0      0.00%    100.00% # Request fanout histogram
system.membus.snoop_fanout::min_value               0                       # Request fanout histogram
system.membus.snoop_fanout::max_value               0                       # Request fanout histogram
system.membus.snoop_fanout::total             1316300                       # Request fanout histogram
system.membus.respLayer1.occupancy        22792939250                       # Layer occupancy (ticks)
system.membus.respLayer1.utilization              6.1                       # Layer utilization (%)
system.membus.reqLayer0.occupancy         23547762000                       # Layer occupancy (ticks)
system.membus.reqLayer0.utilization               6.3                       # Layer utilization (%)
system.tol2bus.pwrStateResidencyTicks::UNDEFINED 371562453000                       # Cumulative time (in ticks) in various power states
system.tol2bus.trans_dist::ReadResp               856                       # Transaction distribution
system.tol2bus.trans_dist::WritebackDirty      2623904                       # Transaction distribution
system.tol2bus.trans_dist::WritebackClean          370                       # Transaction distribution
system.tol2bus.trans_dist::CleanEvict             676                       # Transaction distribution
system.tol2bus.trans_dist::ReadExReq          1316119                       # Transaction distribution
system.tol2bus.trans_dist::ReadExResp         1316119                       # Transaction distribution
system.tol2bus.trans_dist::ReadCleanReq           434                       # Transaction distribution
system.tol2bus.trans_dist::ReadSharedReq          422                       # Transaction distribution
system.tol2bus.pkt_count_system.cpu.icache.mem_side::system.l2.cpu_side         1238                       # Packet count per connected master and slave (bytes)
system.tol2bus.pkt_count_system.cpu.dcache.mem_side::system.l2.cpu_side      3949495                       # Packet count per connected master and slave (bytes)
system.tol2bus.pkt_count::total               3950733                       # Packet count per connected master and slave (bytes)
system.tol2bus.pkt_size_system.cpu.icache.mem_side::system.l2.cpu_side       205824                       # Cumulative packet size per connected master and slave (bytes)
system.tol2bus.pkt_size_system.cpu.dcache.mem_side::system.l2.cpu_side    673979136                       # Cumulative packet size per connected master and slave (bytes)
system.tol2bus.pkt_size::total              674184960                       # Cumulative packet size per connected master and slave (bytes)
system.tol2bus.snoops                         1308167                       # Total snoops (count)
system.tol2bus.snoopTraffic                 334774784                       # Total snoop traffic (bytes)
system.tol2bus.snoop_fanout::samples          2625142                       # Request fanout histogram
system.tol2bus.snoop_fanout::mean            0.000099                       # Request fanout histogram
system.tol2bus.snoop_fanout::stdev           0.009932                       # Request fanout histogram
system.tol2bus.snoop_fanout::underflows             0      0.00%      0.00% # Request fanout histogram
system.tol2bus.snoop_fanout::0                2624883     99.99%     99.99% # Request fanout histogram
system.tol2bus.snoop_fanout::1                    259      0.01%    100.00% # Request fanout histogram
system.tol2bus.snoop_fanout::2                      0      0.00%    100.00% # Request fanout histogram
system.tol2bus.snoop_fanout::overflows              0      0.00%    100.00% # Request fanout histogram
system.tol2bus.snoop_fanout::min_value              0                       # Request fanout histogram
system.tol2bus.snoop_fanout::max_value              1                       # Request fanout histogram
system.tol2bus.snoop_fanout::total            2625142                       # Request fanout histogram
system.tol2bus.reqLayer0.occupancy        13166238000                       # Layer occupancy (ticks)
system.tol2bus.reqLayer0.utilization              3.5                       # Layer utilization (%)
system.tol2bus.respLayer1.occupancy       11848877991                       # Layer occupancy (ticks)
system.tol2bus.respLayer1.utilization             3.2                       # Layer utilization (%)
system.tol2bus.respLayer0.occupancy           3906000                       # Layer occupancy (ticks)
system.tol2bus.respLayer0.utilization             0.0                       # Layer utilization (%)
system.voltage_domain.voltage                       1                       # Voltage in Volts
system.clk_domain.clock                          1000                       # Clock period in ticks
system.l2.pwrStateResidencyTicks::UNDEFINED 371562453000                       # Cumulative time (in ticks) in various power states
system.l2.demand_hits::.cpu.inst                  154                       # number of demand (read+write) hits
system.l2.demand_hits::.cpu.data                  513                       # number of demand (read+write) hits
system.l2.demand_hits::total                      667                       # number of demand (read+write) hits
system.l2.overall_hits::.cpu.inst                 154                       # number of overall hits
system.l2.overall_hits::.cpu.data                 513                       # number of overall hits
system.l2.overall_hits::total                     667                       # number of overall hits
system.l2.demand_misses::.cpu.inst                280                       # number of demand (read+write) misses
system.l2.demand_misses::.cpu.data            1316028                       # number of demand (read+write) misses
system.l2.demand_misses::total                1316308                       # number of demand (read+write) misses
system.l2.overall_misses::.cpu.inst               280                       # number of overall misses
system.l2.overall_misses::.cpu.data           1316028                       # number of overall misses
system.l2.overall_misses::total               1316308                       # number of overall misses
system.l2.demand_miss_latency::.cpu.inst     34298000                       # number of demand (read+write) miss cycles
system.l2.demand_miss_latency::.cpu.data 164531874000                       # number of demand (read+write) miss cycles
system.l2.demand_miss_latency::total     164566172000                       # number of demand (read+write) miss cycles
system.l2.overall_miss_latency::.cpu.inst     34298000                       # number of overall miss cycles
system.l2.overall_miss_latency::.cpu.data 164531874000                       # number of overall miss cycles
system.l2.overall_miss_latency::total    164566172000                       # number of overall miss cycles
system.l2.demand_accesses::.cpu.inst              434                       # number of demand (read+write) accesses
system.l2.demand_accesses::.cpu.data          1316541                       # number of demand (read+write) accesses
system.l2.demand_accesses::total              1316975                       # number of demand (read+write) accesses
system.l2.overall_accesses::.cpu.inst             434                       # number of overall (read+write) accesses
system.l2.overall_accesses::.cpu.data         1316541                       # number of overall (read+write) accesses
system.l2.overall_accesses::total             1316975                       # number of overall (read+write) accesses
system.l2.demand_miss_rate::.cpu.inst        0.645161                       # miss rate for demand accesses
system.l2.demand_miss_rate::.cpu.data        0.999610                       # miss rate for demand accesses
system.l2.demand_miss_rate::total            0.999494                       # miss rate for demand accesses
system.l2.overall_miss_rate::.cpu.inst       0.645161                       # miss rate for overall accesses
system.l2.overall_miss_rate::.cpu.data       0.999610                       # miss rate for overall accesses
system.l2.overall_miss_rate::total           0.999494                       # miss rate for overall accesses
system.l2.demand_avg_miss_latency::.cpu.inst 122492.857143                       # average overall miss latency
system.l2.demand_avg_miss_latency::.cpu.data 125021.560332                       # average overall miss latency
system.l2.demand_avg_miss_latency::total 125021.022435                       # average overall miss latency
system.l2.overall_avg_miss_latency::.cpu.inst 122492.857143                       # average overall miss latency
system.l2.overall_avg_miss_latency::.cpu.data 125021.560332                       # average overall miss latency
system.l2.overall_avg_miss_latency::total 125021.022435                       # average overall miss latency
system.l2.blocked_cycles::no_mshrs                  0                       # number of cycles access was blocked
system.l2.blocked_cycles::no_targets                0                       # number of cycles access was blocked
system.l2.blocked::no_mshrs                         0                       # number of cycles access was blocked
system.l2.blocked::no_targets                       0                       # number of cycles access was blocked
system.l2.avg_blocked_cycles::no_mshrs            nan                       # average number of cycles each access was blocked
system.l2.avg_blocked_cycles::no_targets          nan                       # average number of cycles each access was blocked
system.l2.writebacks::.writebacks             1307714                       # number of writebacks
system.l2.writebacks::total                   1307714                       # number of writebacks
system.l2.demand_mshr_hits::.cpu.data               8                       # number of demand (read+write) MSHR hits
system.l2.demand_mshr_hits::total                   8                       # number of demand (read+write) MSHR hits
system.l2.overall_mshr_hits::.cpu.data              8                       # number of overall MSHR hits
system.l2.overall_mshr_hits::total                  8                       # number of overall MSHR hits
system.l2.demand_mshr_misses::.cpu.inst           280                       # number of demand (read+write) MSHR misses
system.l2.demand_mshr_misses::.cpu.data       1316020                       # number of demand (read+write) MSHR misses
system.l2.demand_mshr_misses::total           1316300                       # number of demand (read+write) MSHR misses
system.l2.overall_mshr_misses::.cpu.inst          280                       # number of overall MSHR misses
system.l2.overall_mshr_misses::.cpu.data      1316020                       # number of overall MSHR misses
system.l2.overall_mshr_misses::total          1316300                       # number of overall MSHR misses
system.l2.demand_mshr_miss_latency::.cpu.inst     28698000                       # number of demand (read+write) MSHR miss cycles
system.l2.demand_mshr_miss_latency::.cpu.data 138210671000                       # number of demand (read+write) MSHR miss cycles
system.l2.demand_mshr_miss_latency::total 138239369000                       # number of demand (read+write) MSHR miss cycles
system.l2.overall_mshr_miss_latency::.cpu.inst     28698000                       # number of overall MSHR miss cycles
system.l2.overall_mshr_miss_latency::.cpu.data 138210671000                       # number of overall MSHR miss cycles
system.l2.overall_mshr_miss_latency::total 138239369000                       # number of overall MSHR miss cycles
system.l2.demand_mshr_miss_rate::.cpu.inst     0.645161                       # mshr miss rate for demand accesses
system.l2.demand_mshr_miss_rate::.cpu.data     0.999604                       # mshr miss rate for demand accesses
system.l2.demand_mshr_miss_rate::total       0.999487                       # mshr miss rate for demand accesses
system.l2.overall_mshr_miss_rate::.cpu.inst     0.645161                       # mshr miss rate for overall accesses
system.l2.overall_mshr_miss_rate::.cpu.data     0.999604                       # mshr miss rate for overall accesses
system.l2.overall_mshr_miss_rate::total      0.999487                       # mshr miss rate for overall accesses
system.l2.demand_avg_mshr_miss_latency::.cpu.inst 102492.857143                       # average overall mshr miss latency
system.l2.demand_avg_mshr_miss_latency::.cpu.data 105021.710156                       # average overall mshr miss latency
system.l2.demand_avg_mshr_miss_latency::total 105021.172225                       # average overall mshr miss latency
system.l2.overall_avg_mshr_miss_latency::.cpu.inst 102492.857143                       # average overall mshr miss latency
system.l2.overall_avg_mshr_miss_latency::.cpu.data 105021.710156                       # average overall mshr miss latency
system.l2.overall_avg_mshr_miss_latency::total 105021.172225                       # average overall mshr miss latency
system.l2.replacements                        1308167                       # number of replacements
system.l2.WritebackDirty_hits::.writebacks      1316190                       # number of WritebackDirty hits
system.l2.WritebackDirty_hits::total          1316190                       # number of WritebackDirty hits
system.l2.WritebackDirty_accesses::.writebacks      1316190                       # number of WritebackDirty accesses(hits+misses)
system.l2.WritebackDirty_accesses::total      1316190                       # number of WritebackDirty accesses(hits+misses)
system.l2.WritebackClean_hits::.writebacks          336                       # number of WritebackClean hits
system.l2.WritebackClean_hits::total              336                       # number of WritebackClean hits
system.l2.WritebackClean_accesses::.writebacks          336                       # number of WritebackClean accesses(hits+misses)
system.l2.WritebackClean_accesses::total          336                       # number of WritebackClean accesses(hits+misses)
system.l2.ReadExReq_hits::.cpu.data               234                       # number of ReadExReq hits
system.l2.ReadExReq_hits::total                   234                       # number of ReadExReq hits
system.l2.ReadExReq_misses::.cpu.data         1315885                       # number of ReadExReq misses
system.l2.ReadExReq_misses::total             1315885                       # number of ReadExReq misses
system.l2.ReadExReq_miss_latency::.cpu.data 164512568000                       # number of ReadExReq miss cycles
system.l2.ReadExReq_miss_latency::total  164512568000                       # number of ReadExReq miss cycles
system.l2.ReadExReq_accesses::.cpu.data       1316119                       # number of ReadExReq accesses(hits+misses)
system.l2.ReadExReq_accesses::total           1316119                       # number of ReadExReq accesses(hits+misses)
system.l2.ReadExReq_miss_rate::.cpu.data     0.999822                       # miss rate for ReadExReq accesses
system.l2.ReadExReq_miss_rate::total         0.999822                       # miss rate for ReadExReq accesses
system.l2.ReadExReq_avg_miss_latency::.cpu.data 125020.475194                       # average ReadExReq miss latency
system.l2.ReadExReq_avg_miss_latency::total 125020.475194                       # average ReadExReq miss latency
system.l2.ReadExReq_mshr_misses::.cpu.data      1315885                       # number of ReadExReq MSHR misses
system.l2.ReadExReq_mshr_misses::total        1315885                       # number of ReadExReq MSHR misses
system.l2.ReadExReq_mshr_miss_latency::.cpu.data 138194868000                       # number of ReadExReq MSHR miss cycles
system.l2.ReadExReq_mshr_miss_latency::total 138194868000                       # number of ReadExReq MSHR miss cycles
system.l2.ReadExReq_mshr_miss_rate::.cpu.data     0.999822                       # mshr miss rate for ReadExReq accesses
system.l2.ReadExReq_mshr_miss_rate::total     0.999822                       # mshr miss rate for ReadExReq accesses
system.l2.ReadExReq_avg_mshr_miss_latency::.cpu.data 105020.475194                       # average ReadExReq mshr miss latency
system.l2.ReadExReq_avg_mshr_miss_latency::total 105020.475194                       # average ReadExReq mshr miss latency
system.l2.ReadCleanReq_hits::.cpu.inst            154                       # number of ReadCleanReq hits
system.l2.ReadCleanReq_hits::total                154                       # number of ReadCleanReq hits
system.l2.ReadCleanReq_misses::.cpu.inst          280                       # number of ReadCleanReq misses
system.l2.ReadCleanReq_misses::total              280                       # number of ReadCleanReq misses
system.l2.ReadCleanReq_miss_latency::.cpu.inst     34298000                       # number of ReadCleanReq miss cycles
system.l2.ReadCleanReq_miss_latency::total     34298000                       # number of ReadCleanReq miss cycles
system.l2.ReadCleanReq_accesses::.cpu.inst          434                       # number of ReadCleanReq accesses(hits+misses)
system.l2.ReadCleanReq_accesses::total            434                       # number of ReadCleanReq accesses(hits+misses)
system.l2.ReadCleanReq_miss_rate::.cpu.inst     0.645161                       # miss rate for ReadCleanReq accesses
system.l2.ReadCleanReq_miss_rate::total      0.645161                       # miss rate for ReadCleanReq accesses
system.l2.ReadCleanReq_avg_miss_latency::.cpu.inst 122492.857143                       # average ReadCleanReq miss latency
system.l2.ReadCleanReq_avg_miss_latency::total 122492.857143                       # average ReadCleanReq miss latency
system.l2.ReadCleanReq_mshr_misses::.cpu.inst          280                       # number of ReadCleanReq MSHR misses
system.l2.ReadCleanReq_mshr_misses::total          280                       # number of ReadCleanReq MSHR misses
system.l2.ReadCleanReq_mshr_miss_latency::.cpu.inst     28698000                       # number of ReadCleanReq MSHR miss cycles
system.l2.ReadCleanReq_mshr_miss_latency::total     28698000                       # number of ReadCleanReq MSHR miss cycles
system.l2.ReadCleanReq_mshr_miss_rate::.cpu.inst     0.645161                       # mshr miss rate for ReadCleanReq accesses
system.l2.ReadCleanReq_mshr_miss_rate::total     0.645161                       # mshr miss rate for ReadCleanReq accesses
system.l2.ReadCleanReq_avg_mshr_miss_latency::.cpu.inst 102492.857143                       # average ReadCleanReq mshr miss latency
system.l2.ReadCleanReq_avg_mshr_miss_latency::total 102492.857143                       # average ReadCleanReq mshr miss latency
system.l2.ReadSharedReq_hits::.cpu.data           279                       # number of ReadSharedReq hits
system.l2.ReadSharedReq_hits::total               279                       # number of ReadSharedReq hits
system.l2.ReadSharedReq_misses::.cpu.data          143                       # number of ReadSharedReq misses
system.l2.ReadSharedReq_misses::total             143                       # number of ReadSharedReq misses
system.l2.ReadSharedReq_miss_latency::.cpu.data     19306000                       # number of ReadSharedReq miss cycles
system.l2.ReadSharedReq_miss_latency::total     19306000                       # number of ReadSharedReq miss cycles
system.l2.ReadSharedReq_accesses::.cpu.data          422                       # number of ReadSharedReq accesses(hits+misses)
system.l2.ReadSharedReq_accesses::total           422                       # number of ReadSharedReq accesses(hits+misses)
system.l2.ReadSharedReq_miss_rate::.cpu.data     0.338863                       # miss rate for ReadSharedReq accesses
system.l2.ReadSharedReq_miss_rate::total     0.338863                       # miss rate for ReadSharedReq accesses
system.l2.ReadSharedReq_avg_miss_latency::.cpu.data 135006.993007                       # average ReadSharedReq miss latency
system.l2.ReadSharedReq_avg_miss_latency::total 135006.993007                       # average ReadSharedReq miss latency
system.l2.ReadSharedReq_mshr_hits::.cpu.data            8                       # number of ReadSharedReq MSHR hits
system.l2.ReadSharedReq_mshr_hits::total            8                       # number of ReadSharedReq MSHR hits
system.l2.ReadSharedReq_mshr_misses::.cpu.data          135                       # number of ReadSharedReq MSHR misses
system.l2.ReadSharedReq_mshr_misses::total          135                       # number of ReadSharedReq MSHR misses
system.l2.ReadSharedReq_mshr_miss_latency::.cpu.data     15803000                       # number of ReadSharedReq MSHR miss cycles
system.l2.ReadSharedReq_mshr_miss_latency::total     15803000                       # number of ReadSharedReq MSHR miss cycles
system.l2.ReadSharedReq_mshr_miss_rate::.cpu.data     0.319905                       # mshr miss rate for ReadSharedReq accesses
system.l2.ReadSharedReq_mshr_miss_rate::total     0.319905                       # mshr miss rate for ReadSharedReq accesses
system.l2.ReadSharedReq_avg_mshr_miss_latency::.cpu.data 117059.259259                       # average ReadSharedReq mshr miss latency
system.l2.ReadSharedReq_avg_mshr_miss_latency::total 117059.259259                       # average ReadSharedReq mshr miss latency
system.l2.tags.pwrStateResidencyTicks::UNDEFINED 371562453000                       # Cumulative time (in ticks) in various power states
system.l2.tags.tagsinuse                  8055.030757                       # Cycle average of tags in use
system.l2.tags.total_refs                     2633620                       # Total number of references to valid blocks.
system.l2.tags.sampled_refs                   1316359                       # Sample count of references to valid blocks.
system.l2.tags.avg_refs                      2.000685                       # Average number of references to valid blocks.
system.l2.tags.warmup_cycle                    102000                       # Cycle when the warmup percentage was hit.
system.l2.tags.occ_blocks::.writebacks       0.326610                       # Average occupied blocks per requestor
system.l2.tags.occ_blocks::.cpu.inst         4.106991                       # Average occupied blocks per requestor
system.l2.tags.occ_blocks::.cpu.data      8050.597157                       # Average occupied blocks per requestor
system.l2.tags.occ_percent::.writebacks      0.000040                       # Average percentage of cache occupancy
system.l2.tags.occ_percent::.cpu.inst        0.000501                       # Average percentage of cache occupancy
system.l2.tags.occ_percent::.cpu.data        0.982739                       # Average percentage of cache occupancy
system.l2.tags.occ_percent::total            0.983280                       # Average percentage of cache occupancy
system.l2.tags.occ_task_id_blocks::1024          8192                       # Occupied blocks per task id
system.l2.tags.age_task_id_blocks_1024::0           36                       # Occupied blocks per task id
system.l2.tags.age_task_id_blocks_1024::1          324                       # Occupied blocks per task id
system.l2.tags.age_task_id_blocks_1024::2         3236                       # Occupied blocks per task id
system.l2.tags.age_task_id_blocks_1024::3         4596                       # Occupied blocks per task id
system.l2.tags.occ_task_id_percent::1024            1                       # Percentage of cache occupancy per task id
system.l2.tags.tag_accesses                  22385383                       # Number of tag accesses
system.l2.tags.data_accesses                 22385383                       # Number of data accesses
system.cpu_voltage_domain.voltage                   1                       # Voltage in Volts
system.mem_ctrls.pwrStateResidencyTicks::UNDEFINED 371562453000                       # Cumulative time (in ticks) in various power states
system.mem_ctrls.bytes_read::.cpu.inst          71680                       # Number of bytes read from this memory
system.mem_ctrls.bytes_read::.cpu.data      336901120                       # Number of bytes read from this memory
system.mem_ctrls.bytes_read::total          336972800                       # Number of bytes read from this memory
system.mem_ctrls.bytes_inst_read::.cpu.inst        71680                       # Number of instructions bytes read from this memory
system.mem_ctrls.bytes_inst_read::total         71680                       # Number of instructions bytes read from this memory
system.mem_ctrls.bytes_written::.writebacks    334774784                       # Number of bytes written to this memory
system.mem_ctrls.bytes_written::total       334774784                       # Number of bytes written to this memory
system.mem_ctrls.num_reads::.cpu.inst             280                       # Number of read requests responded to by this memory
system.mem_ctrls.num_reads::.cpu.data         1316020                       # Number of read requests responded to by this memory
system.mem_ctrls.num_reads::total             1316300                       # Number of read requests responded to by this memory
system.mem_ctrls.num_writes::.writebacks      1307714                       # Number of write requests responded to by this memory
system.mem_ctrls.num_writes::total            1307714                       # Number of write requests responded to by this memory
system.mem_ctrls.bw_read::.cpu.inst            192915                       # Total read bandwidth from this memory (bytes/s)
system.mem_ctrls.bw_read::.cpu.data         906714651                       # Total read bandwidth from this memory (bytes/s)
system.mem_ctrls.bw_read::total             906907566                       # Total read bandwidth from this memory (bytes/s)
system.mem_ctrls.bw_inst_read::.cpu.inst       192915                       # Instruction read bandwidth from this memory (bytes/s)
system.mem_ctrls.bw_inst_read::total           192915                       # Instruction read bandwidth from this memory (bytes/s)
system.mem_ctrls.bw_write::.writebacks      900991963                       # Write bandwidth from this memory (bytes/s)
system.mem_ctrls.bw_write::total            900991963                       # Write bandwidth from this memory (bytes/s)
system.mem_ctrls.bw_total::.writebacks      900991963                       # Total bandwidth to/from this memory (bytes/s)
system.mem_ctrls.bw_total::.cpu.inst           192915                       # Total bandwidth to/from this memory (bytes/s)
system.mem_ctrls.bw_total::.cpu.data        906714651                       # Total bandwidth to/from this memory (bytes/s)
system.mem_ctrls.bw_total::total           1807899530                       # Total bandwidth to/from this memory (bytes/s)
system.mem_ctrls.avgPriority_.writebacks::samples   5230856.00                       # Average QoS priority value for accepted requests
system.mem_ctrls.avgPriority_.cpu.inst::samples      1120.00                       # Average QoS priority value for accepted requests
system.mem_ctrls.avgPriority_.cpu.data::samples   5264080.00                       # Average QoS priority value for accepted requests
system.mem_ctrls.priorityMinLatency      0.000000018750                       # per QoS priority minimum request to response latency (s)
system.mem_ctrls.priorityMaxLatency      0.000534082750                       # per QoS priority maximum request to response latency (s)
system.mem_ctrls.numReadWriteTurnArounds       262716                       # Number of turnarounds from READ to WRITE
system.mem_ctrls.numWriteReadTurnArounds       262716                       # Number of turnarounds from WRITE to READ
system.mem_ctrls.numStayReadState             7965126                       # Number of times bus staying in READ state
system.mem_ctrls.numStayWriteState            4986698                       # Number of times bus staying in WRITE state
system.mem_ctrls.readReqs                     1316300                       # Number of read requests accepted
system.mem_ctrls.writeReqs                    1307714                       # Number of write requests accepted
system.mem_ctrls.readBursts                   5265200                       # Number of DRAM read bursts, including those serviced by the write queue
system.mem_ctrls.writeBursts                  5230856                       # Number of DRAM write bursts, including those merged in the write queue
system.mem_ctrls.servicedByWrQ                      0                       # Number of DRAM read bursts serviced by the write queue
system.mem_ctrls.mergedWrBursts                     0                       # Number of DRAM write bursts merged with an existing one
system.mem_ctrls.neitherReadNorWriteReqs            0                       # Number of requests that are neither read nor write
system.mem_ctrls.perBankRdBursts::0            329332                       # Per bank write bursts
system.mem_ctrls.perBankRdBursts::1            329188                       # Per bank write bursts
system.mem_ctrls.perBankRdBursts::2            329156                       # Per bank write bursts
system.mem_ctrls.perBankRdBursts::3            329112                       # Per bank write bursts
system.mem_ctrls.perBankRdBursts::4            329192                       # Per bank write bursts
system.mem_ctrls.perBankRdBursts::5            329016                       # Per bank write bursts
system.mem_ctrls.perBankRdBursts::6            328944                       # Per bank write bursts
system.mem_ctrls.perBankRdBursts::7            328912                       # Per bank write bursts
system.mem_ctrls.perBankRdBursts::8            328856                       # Per bank write bursts
system.mem_ctrls.perBankRdBursts::9            329152                       # Per bank write bursts
system.mem_ctrls.perBankRdBursts::10           329120                       # Per bank write bursts
system.mem_ctrls.perBankRdBursts::11           329000                       # Per bank write bursts
system.mem_ctrls.perBankRdBursts::12           328964                       # Per bank write bursts
system.mem_ctrls.perBankRdBursts::13           328924                       # Per bank write bursts
system.mem_ctrls.perBankRdBursts::14           329080                       # Per bank write bursts
system.mem_ctrls.perBankRdBursts::15           329252                       # Per bank write bursts
system.mem_ctrls.perBankWrBursts::0            327105                       # Per bank write bursts
system.mem_ctrls.perBankWrBursts::1            327032                       # Per bank write bursts
system.mem_ctrls.perBankWrBursts::2            326988                       # Per bank write bursts
system.mem_ctrls.perBankWrBursts::3            327000                       # Per bank write bursts
system.mem_ctrls.perBankWrBursts::4            327012                       # Per bank write bursts
system.mem_ctrls.perBankWrBursts::5            326896                       # Per bank write bursts
system.mem_ctrls.perBankWrBursts::6            326784                       # Per bank write bursts
system.mem_ctrls.perBankWrBursts::7            326784                       # Per bank write bursts
system.mem_ctrls.perBankWrBursts::8            326720                       # Per bank write bursts
system.mem_ctrls.perBankWrBursts::9            326952                       # Per bank write bursts
system.mem_ctrls.perBankWrBursts::10           326960                       # Per bank write bursts
system.mem_ctrls.perBankWrBursts::11           326936                       # Per bank write bursts
system.mem_ctrls.perBankWrBursts::12           326892                       # Per bank write bursts
system.mem_ctrls.perBankWrBursts::13           326828                       # Per bank write bursts
system.mem_ctrls.perBankWrBursts::14           326884                       # Per bank write bursts
system.mem_ctrls.perBankWrBursts::15           327052                       # Per bank write bursts
system.mem_ctrls.avgRdQLen                       4.01                       # Average read queue length when enqueuing
system.mem_ctrls.avgWrQLen                      26.84                       # Average write queue length when enqueuing
system.mem_ctrls.totQLat                 144555220250                       # Total ticks spent queuing
system.mem_ctrls.totBusLat                26326000000                       # Total ticks spent in databus transfers
system.mem_ctrls.totMemAccLat            243277720250                       # Total ticks spent from burst creation until serviced by the DRAM
system.mem_ctrls.avgQLat                     27454.84                       # Average queueing delay per DRAM burst
system.mem_ctrls.avgBusLat                    5000.00                       # Average bus latency per DRAM burst
system.mem_ctrls.avgMemAccLat                46204.84                       # Average memory access latency per DRAM burst
system.mem_ctrls.numRdRetry                         0                       # Number of times read queue was full causing retry
system.mem_ctrls.numWrRetry                         0                       # Number of times write queue was full causing retry
system.mem_ctrls.readRowHits                  4738554                       # Number of row buffer hits during reads
system.mem_ctrls.writeRowHits                 4697275                       # Number of row buffer hits during writes
system.mem_ctrls.readRowHitRate                 90.00                       # Row buffer hit rate for reads
system.mem_ctrls.writeRowHitRate                89.80                       # Row buffer hit rate for writes
system.mem_ctrls.readPktSize::0                     0                       # Read request sizes (log2)
system.mem_ctrls.readPktSize::1                     0                       # Read request sizes (log2)
system.mem_ctrls.readPktSize::2                     0                       # Read request sizes (log2)
system.mem_ctrls.readPktSize::3                     0                       # Read request sizes (log2)
system.mem_ctrls.readPktSize::4                     0                       # Read request sizes (log2)
system.mem_ctrls.readPktSize::5                     0                       # Read request sizes (log2)
system.mem_ctrls.readPktSize::6               5265200                       # Read request sizes (log2)
system.mem_ctrls.writePktSize::0                    0                       # Write request sizes (log2)
system.mem_ctrls.writePktSize::1                    0                       # Write request sizes (log2)
system.mem_ctrls.writePktSize::2                    0                       # Write request sizes (log2)
system.mem_ctrls.writePktSize::3                    0                       # Write request sizes (log2)
system.mem_ctrls.writePktSize::4                    0                       # Write request sizes (log2)
system.mem_ctrls.writePktSize::5                    0                       # Write request sizes (log2)
system.mem_ctrls.writePktSize::6              5230856                       # Write request sizes (log2)
system.mem_ctrls.rdQLenPdf::0                 1316090                       # What read queue length does an incoming req see
system.mem_ctrls.rdQLenPdf::1                 1316091                       # What read queue length does an incoming req see
system.mem_ctrls.rdQLenPdf::2                 1316184                       # What read queue length does an incoming req see
system.mem_ctrls.rdQLenPdf::3                 1316187                       # What read queue length does an incoming req see
system.mem_ctrls.rdQLenPdf::4                     207                       # What read queue length does an incoming req see
system.mem_ctrls.rdQLenPdf::5                     206                       # What read queue length does an incoming req see
system.mem_ctrls.rdQLenPdf::6                     114                       # What read queue length does an incoming req see
system.mem_ctrls.rdQLenPdf::7                     112                       # What read queue length does an incoming req see
system.mem_ctrls.rdQLenPdf::8                       3                       # What read queue length does an incoming req see
system.mem_ctrls.rdQLenPdf::9                       3                       # What read queue length does an incoming req see
system.mem_ctrls.rdQLenPdf::10                      2                       # What read queue length does an incoming req see
system.mem_ctrls.rdQLenPdf::11                      1                       # What read queue length does an incoming req see
system.mem_ctrls.rdQLenPdf::12                      0                       # What read queue length does an incoming req see
system.mem_ctrls.rdQLenPdf::13                      0                       # What read queue length does an incoming req see
system.mem_ctrls.rdQLenPdf::14                      0                       # What read queue length does an incoming req see
system.mem_ctrls.rdQLenPdf::15                      0                       # What read queue length does an incoming req see
system.mem_ctrls.rdQLenPdf::16                      0                       # What read queue length does an incoming req see
system.mem_ctrls.rdQLenPdf::17                      0                       # What read queue length does an incoming req see
system.mem_ctrls.rdQLenPdf::18                      0                       # What read queue length does an incoming req see
system.mem_ctrls.rdQLenPdf::19                      0                       # What read queue length does an incoming req see
system.mem_ctrls.rdQLenPdf::20                      0                       # What read queue length does an incoming req see
system.mem_ctrls.rdQLenPdf::21                      0                       # What read queue length does an incoming req see
system.mem_ctrls.rdQLenPdf::22                      0                       # What read queue length does an incoming req see
system.mem_ctrls.rdQLenPdf::23                      0                       # What read queue length does an incoming req see
system.mem_ctrls.rdQLenPdf::24                      0                       # What read queue length does an incoming req see
system.mem_ctrls.rdQLenPdf::25                      0                       # What read queue length does an incoming req see
system.mem_ctrls.rdQLenPdf::26                      0                       # What read queue length does an incoming req see
system.mem_ctrls.rdQLenPdf::27                      0                       # What read queue length does an incoming req see
system.mem_ctrls.rdQLenPdf::28                      0                       # What read queue length does an incoming req see
system.mem_ctrls.rdQLenPdf::29                      0                       # What read queue length does an incoming req see
system.mem_ctrls.rdQLenPdf::30                      0                       # What read queue length does an incoming req see
system.mem_ctrls.rdQLenPdf::31                      0                       # What read queue length does an incoming req see
system.mem_ctrls.wrQLenPdf::0                       1                       # What write queue length does an incoming req see
system.mem_ctrls.wrQLenPdf::1                       1                       # What write queue length does an incoming req see
system.mem_ctrls.wrQLenPdf::2                       1                       # What write queue length does an incoming req see
system.mem_ctrls.wrQLenPdf::3                       1                       # What write queue length does an incoming req see
system.mem_ctrls.wrQLenPdf::4                       1                       # What write queue length does an incoming req see
system.mem_ctrls.wrQLenPdf::5                       1                       # What write queue length does an incoming req see
system.mem_ctrls.wrQLenPdf::6                       1                       # What write queue length does an incoming req see
system.mem_ctrls.wrQLenPdf::7                       1                       # What write queue length does an incoming req see
system.mem_ctrls.wrQLenPdf::8                       1                       # What write queue length does an incoming req see
system.mem_ctrls.wrQLenPdf::9                       1                       # What write queue length does an incoming req see
system.mem_ctrls.wrQLenPdf::10                      1                       # What write queue length does an incoming req see
system.mem_ctrls.wrQLenPdf::11                      1                       # What write queue length does an incoming req see
system.mem_ctrls.wrQLenPdf::12                      1                       # What write queue length does an incoming req see
system.mem_ctrls.wrQLenPdf::13                      1                       # What write queue length does an incoming req see
system.mem_ctrls.wrQLenPdf::14                      1                       # What write queue length does an incoming req see
system.mem_ctrls.wrQLenPdf::15                 256819                       # What write queue length does an incoming req see
system.mem_ctrls.wrQLenPdf::16                 256825                       # What write queue length does an incoming req see
system.mem_ctrls.wrQLenPdf::17                 261637                       # What write queue length does an incoming req see
system.mem_ctrls.wrQLenPdf::18                 261645                       # What write queue length does an incoming req see
system.mem_ctrls.wrQLenPdf::19                 262708                       # What write queue length does an incoming req see
system.mem_ctrls.wrQLenPdf::20                 262714                       # What write queue length does an incoming req see
system.mem_ctrls.wrQLenPdf::21                 262715                       # What write queue length does an incoming req see
system.mem_ctrls.wrQLenPdf::22                 262720                       # What write queue length does an incoming req see
system.mem_ctrls.wrQLenPdf::23                 262731                       # What write queue length does an incoming req see
system.mem_ctrls.wrQLenPdf::24                 262729                       # What write queue length does an incoming req see
system.mem_ctrls.wrQLenPdf::25                 262728                       # What write queue length does an incoming req see
system.mem_ctrls.wrQLenPdf::26                 262727                       # What write queue length does an incoming req see
system.mem_ctrls.wrQLenPdf::27                 262725                       # What write queue length does an incoming req see
system.mem_ctrls.wrQLenPdf::28                 262726                       # What write queue length does an incoming req see
system.mem_ctrls.wrQLenPdf::29                 262722                       # What write queue length does an incoming req see
system.mem_ctrls.wrQLenPdf::30                 262719                       # What write queue length does an incoming req see
system.mem_ctrls.wrQLenPdf::31                 262717                       # What write queue length does an incoming req see
system.mem_ctrls.wrQLenPdf::32                 262716                       # What write queue length does an incoming req see
system.mem_ctrls.wrQLenPdf::33                 257908                       # What write queue length does an incoming req see
system.mem_ctrls.wrQLenPdf::34                 257899                       # What write queue length does an incoming req see
system.mem_ctrls.wrQLenPdf::35                     11                       # What write queue length does an incoming req see
system.mem_ctrls.wrQLenPdf::36                      0                       # What write queue length does an incoming req see
system.mem_ctrls.wrQLenPdf::37                      0                       # What write queue length does an incoming req see
system.mem_ctrls.wrQLenPdf::38                      0                       # What write queue length does an incoming req see
system.mem_ctrls.wrQLenPdf::39                      0                       # What write queue length does an incoming req see
system.mem_ctrls.wrQLenPdf::40                      0                       # What write queue length does an incoming req see
system.mem_ctrls.wrQLenPdf::41                      0                       # What write queue length does an incoming req see
system.mem_ctrls.wrQLenPdf::42                      0                       # What write queue length does an incoming req see
system.mem_ctrls.wrQLenPdf::43                      0                       # What write queue length does an incoming req see
system.mem_ctrls.wrQLenPdf::44                      0                       # What write queue length does an incoming req see
system.mem_ctrls.wrQLenPdf::45                      0                       # What write queue length does an incoming req see
system.mem_ctrls.wrQLenPdf::46                      0                       # What write queue length does an incoming req see
system.mem_ctrls.wrQLenPdf::47                      0                       # What write queue length does an incoming req see
system.mem_ctrls.wrQLenPdf::48                      0                       # What write queue length does an incoming req see
system.mem_ctrls.wrQLenPdf::49                      0                       # What write queue length does an incoming req see
system.mem_ctrls.wrQLenPdf::50                      0                       # What write queue length does an incoming req see
system.mem_ctrls.wrQLenPdf::51                      0                       # What write queue length does an incoming req see
system.mem_ctrls.wrQLenPdf::52                      0                       # What write queue length does an incoming req see
system.mem_ctrls.wrQLenPdf::53                      0                       # What write queue length does an incoming req see
system.mem_ctrls.wrQLenPdf::54                      0                       # What write queue length does an incoming req see
system.mem_ctrls.wrQLenPdf::55                      0                       # What write queue length does an incoming req see
system.mem_ctrls.wrQLenPdf::56                      0                       # What write queue length does an incoming req see
system.mem_ctrls.wrQLenPdf::57                      0                       # What write queue length does an incoming req see
system.mem_ctrls.wrQLenPdf::58                      0                       # What write queue length does an incoming req see
system.mem_ctrls.wrQLenPdf::59                      0                       # What write queue length does an incoming req see
system.mem_ctrls.wrQLenPdf::60                      0                       # What write queue length does an incoming req see
system.mem_ctrls.wrQLenPdf::61                      0                       # What write queue length does an incoming req see
system.mem_ctrls.wrQLenPdf::62                      0                       # What write queue length does an incoming req see
system.mem_ctrls.wrQLenPdf::63                      0                       # What write queue length does an incoming req see
system.mem_ctrls.bytesPerActivate::samples      1060196                       # Bytes accessed per row activation
system.mem_ctrls.bytesPerActivate::mean    633.605107                       # Bytes accessed per row activation
system.mem_ctrls.bytesPerActivate::gmean   502.461791                       # Bytes accessed per row activation
system.mem_ctrls.bytesPerActivate::stdev   372.452662                       # Bytes accessed per row activation
system.mem_ctrls.bytesPerActivate::0-127        26190      2.47%      2.47% # Bytes accessed per row activation
system.mem_ctrls.bytesPerActivate::128-255        21857      2.06%      4.53% # Bytes accessed per row activation
system.mem_ctrls.bytesPerActivate::256-383       422021     39.81%     44.34% # Bytes accessed per row activation
system.mem_ctrls.bytesPerActivate::384-511         9654      0.91%     45.25% # Bytes accessed per row activation
system.mem_ctrls.bytesPerActivate::512-639        56601      5.34%     50.59% # Bytes accessed per row activation
system.mem_ctrls.bytesPerActivate::640-767         7157      0.68%     51.26% # Bytes accessed per row activation
system.mem_ctrls.bytesPerActivate::768-895        40541      3.82%     55.09% # Bytes accessed per row activation
system.mem_ctrls.bytesPerActivate::896-1023         8845      0.83%     55.92% # Bytes accessed per row activation
system.mem_ctrls.bytesPerActivate::1024-1151       467330     44.08%    100.00% # Bytes accessed per row activation
system.mem_ctrls.bytesPerActivate::total      1060196                       # Bytes accessed per row activation
system.mem_ctrls.rdPerTurnAround::samples       262716                       # Reads before turning the bus around for writes
system.mem_ctrls.rdPerTurnAround::mean      20.041353                       # Reads before turning the bus around for writes
system.mem_ctrls.rdPerTurnAround::gmean     19.905777                       # Reads before turning the bus around for writes
system.mem_ctrls.rdPerTurnAround::stdev     56.692461                       # Reads before turning the bus around for writes
system.mem_ctrls.rdPerTurnAround::0-1023       262714    100.00%    100.00% # Reads before turning the bus around for writes
system.mem_ctrls.rdPerTurnAround::1024-2047            1      0.00%    100.00% # Reads before turning the bus around for writes
system.mem_ctrls.rdPerTurnAround::28672-29695            1      0.00%    100.00% # Reads before turning the bus around for writes
system.mem_ctrls.rdPerTurnAround::total        262716                       # Reads before turning the bus around for writes
system.mem_ctrls.wrPerTurnAround::samples       262716                       # Writes before turning the bus around for reads
system.mem_ctrls.wrPerTurnAround::mean      19.910569                       # Writes before turning the bus around for reads
system.mem_ctrls.wrPerTurnAround::gmean     19.904941                       # Writes before turning the bus around for reads
system.mem_ctrls.wrPerTurnAround::stdev      0.453388                       # Writes before turning the bus around for reads
system.mem_ctrls.wrPerTurnAround::16             1077      0.41%      0.41% # Writes before turning the bus around for reads
system.mem_ctrls.wrPerTurnAround::17                4      0.00%      0.41% # Writes before turning the bus around for reads
[...]
system.cpu.icache.ReadReq_miss_rate::.cpu.inst     0.000014                       # miss rate for ReadReq accesses
system.cpu.icache.ReadReq_miss_rate::total     0.000014                       # miss rate for ReadReq accesses
system.cpu.icache.ReadReq_avg_miss_latency::.cpu.inst 93541.474654                       # average ReadReq miss latency
system.cpu.icache.ReadReq_avg_miss_latency::total 93541.474654                       # average ReadReq miss latency
system.cpu.icache.ReadReq_mshr_misses::.cpu.inst          434                       # number of ReadReq MSHR misses
system.cpu.icache.ReadReq_mshr_misses::total          434                       # number of ReadReq MSHR misses
system.cpu.icache.ReadReq_mshr_miss_latency::.cpu.inst     39729000                       # number of ReadReq MSHR miss cycles
system.cpu.icache.ReadReq_mshr_miss_latency::total     39729000                       # number of ReadReq MSHR miss cycles
system.cpu.icache.ReadReq_mshr_miss_rate::.cpu.inst     0.000014                       # mshr miss rate for ReadReq accesses
system.cpu.icache.ReadReq_mshr_miss_rate::total     0.000014                       # mshr miss rate for ReadReq accesses
system.cpu.icache.ReadReq_avg_mshr_miss_latency::.cpu.inst 91541.474654                       # average ReadReq mshr miss latency
system.cpu.icache.ReadReq_avg_mshr_miss_latency::total 91541.474654                       # average ReadReq mshr miss latency
system.cpu.icache.tags.pwrStateResidencyTicks::UNDEFINED 371562453000                       # Cumulative time (in ticks) in various power states
system.cpu.icache.tags.tagsinuse            63.998505                       # Cycle average of tags in use
system.cpu.icache.tags.total_refs            31735445                       # Total number of references to valid blocks.
system.cpu.icache.tags.sampled_refs               434                       # Sample count of references to valid blocks.
system.cpu.icache.tags.avg_refs          73123.145161                       # Average number of references to valid blocks.
system.cpu.icache.tags.warmup_cycle            123000                       # Cycle when the warmup percentage was hit.
system.cpu.icache.tags.occ_blocks::.cpu.inst    63.998505                       # Average occupied blocks per requestor
system.cpu.icache.tags.occ_percent::.cpu.inst     0.999977                       # Average percentage of cache occupancy
system.cpu.icache.tags.occ_percent::total     0.999977                       # Average percentage of cache occupancy
system.cpu.icache.tags.occ_task_id_blocks::1024           64                       # Occupied blocks per task id
system.cpu.icache.tags.age_task_id_blocks_1024::4           64                       # Occupied blocks per task id
system.cpu.icache.tags.occ_task_id_percent::1024            1                       # Percentage of cache occupancy per task id
system.cpu.icache.tags.tag_accesses          63471324                       # Number of tag accesses
system.cpu.icache.tags.data_accesses         63471324                       # Number of data accesses
system.cpu.dtb.walker.pwrStateResidencyTicks::UNDEFINED 371562453000                       # Cumulative time (in ticks) in various power states
system.cpu.dtb.stage2_mmu.stage2_tlb.walker.pwrStateResidencyTicks::UNDEFINED 371562453000                       # Cumulative time (in ticks) in various power states
system.cpu.dcache.pwrStateResidencyTicks::UNDEFINED 371562453000                       # Cumulative time (in ticks) in various power states
system.cpu.dcache.demand_hits::.cpu.data     83750184                       # number of demand (read+write) hits
system.cpu.dcache.demand_hits::total         83750184                       # number of demand (read+write) hits
system.cpu.dcache.overall_hits::.cpu.data     83750232                       # number of overall hits
system.cpu.dcache.overall_hits::total        83750232                       # number of overall hits
system.cpu.dcache.demand_misses::.cpu.data      2631762                       # number of demand (read+write) misses
system.cpu.dcache.demand_misses::total        2631762                       # number of demand (read+write) misses
system.cpu.dcache.overall_misses::.cpu.data      2631785                       # number of overall misses
system.cpu.dcache.overall_misses::total       2631785                       # number of overall misses
system.cpu.dcache.demand_miss_latency::.cpu.data 351335952000                       # number of demand (read+write) miss cycles
system.cpu.dcache.demand_miss_latency::total 351335952000                       # number of demand (read+write) miss cycles
system.cpu.dcache.overall_miss_latency::.cpu.data 351335952000                       # number of overall miss cycles
system.cpu.dcache.overall_miss_latency::total 351335952000                       # number of overall miss cycles
system.cpu.dcache.demand_accesses::.cpu.data     86381946                       # number of demand (read+write) accesses
system.cpu.dcache.demand_accesses::total     86381946                       # number of demand (read+write) accesses
system.cpu.dcache.overall_accesses::.cpu.data     86382017                       # number of overall (read+write) accesses
system.cpu.dcache.overall_accesses::total     86382017                       # number of overall (read+write) accesses
system.cpu.dcache.demand_miss_rate::.cpu.data     0.030467                       # miss rate for demand accesses
system.cpu.dcache.demand_miss_rate::total     0.030467                       # miss rate for demand accesses
system.cpu.dcache.overall_miss_rate::.cpu.data     0.030467                       # miss rate for overall accesses
system.cpu.dcache.overall_miss_rate::total     0.030467                       # miss rate for overall accesses
system.cpu.dcache.demand_avg_miss_latency::.cpu.data 133498.375613                       # average overall miss latency
system.cpu.dcache.demand_avg_miss_latency::total 133498.375613                       # average overall miss latency
system.cpu.dcache.overall_avg_miss_latency::.cpu.data 133497.208929                       # average overall miss latency
system.cpu.dcache.overall_avg_miss_latency::total 133497.208929                       # average overall miss latency
system.cpu.dcache.blocked_cycles::no_mshrs            0                       # number of cycles access was blocked
system.cpu.dcache.blocked_cycles::no_targets            0                       # number of cycles access was blocked
system.cpu.dcache.blocked::no_mshrs                 0                       # number of cycles access was blocked
system.cpu.dcache.blocked::no_targets               0                       # number of cycles access was blocked
system.cpu.dcache.avg_blocked_cycles::no_mshrs          nan                       # average number of cycles each access was blocked
system.cpu.dcache.avg_blocked_cycles::no_targets          nan                       # average number of cycles each access was blocked
system.cpu.dcache.writebacks::.writebacks      1316190                       # number of writebacks
system.cpu.dcache.writebacks::total           1316190                       # number of writebacks
system.cpu.dcache.demand_mshr_hits::.cpu.data      1315233                       # number of demand (read+write) MSHR hits
system.cpu.dcache.demand_mshr_hits::total      1315233                       # number of demand (read+write) MSHR hits
system.cpu.dcache.overall_mshr_hits::.cpu.data      1315233                       # number of overall MSHR hits
system.cpu.dcache.overall_mshr_hits::total      1315233                       # number of overall MSHR hits
system.cpu.dcache.demand_mshr_misses::.cpu.data      1316529                       # number of demand (read+write) MSHR misses
system.cpu.dcache.demand_mshr_misses::total      1316529                       # number of demand (read+write) MSHR misses
system.cpu.dcache.overall_mshr_misses::.cpu.data      1316541                       # number of overall MSHR misses
system.cpu.dcache.overall_mshr_misses::total      1316541                       # number of overall MSHR misses
system.cpu.dcache.demand_mshr_miss_latency::.cpu.data 168497108000                       # number of demand (read+write) MSHR miss cycles
system.cpu.dcache.demand_mshr_miss_latency::total 168497108000                       # number of demand (read+write) MSHR miss cycles
system.cpu.dcache.overall_mshr_miss_latency::.cpu.data 168498606000                       # number of overall MSHR miss cycles
system.cpu.dcache.overall_mshr_miss_latency::total 168498606000                       # number of overall MSHR miss cycles
system.cpu.dcache.demand_mshr_miss_rate::.cpu.data     0.015241                       # mshr miss rate for demand accesses
system.cpu.dcache.demand_mshr_miss_rate::total     0.015241                       # mshr miss rate for demand accesses
system.cpu.dcache.overall_mshr_miss_rate::.cpu.data     0.015241                       # mshr miss rate for overall accesses
system.cpu.dcache.overall_mshr_miss_rate::total     0.015241                       # mshr miss rate for overall accesses
system.cpu.dcache.demand_avg_mshr_miss_latency::.cpu.data 127985.868902                       # average overall mshr miss latency
system.cpu.dcache.demand_avg_mshr_miss_latency::total 127985.868902                       # average overall mshr miss latency
system.cpu.dcache.overall_avg_mshr_miss_latency::.cpu.data 127985.840168                       # average overall mshr miss latency
system.cpu.dcache.overall_avg_mshr_miss_latency::total 127985.840168                       # average overall mshr miss latency
system.cpu.dcache.replacements                1316413                       # number of replacements
system.cpu.dcache.ReadReq_hits::.cpu.data      2043268                       # number of ReadReq hits
system.cpu.dcache.ReadReq_hits::total         2043268                       # number of ReadReq hits
system.cpu.dcache.ReadReq_misses::.cpu.data          429                       # number of ReadReq misses
system.cpu.dcache.ReadReq_misses::total           429                       # number of ReadReq misses
system.cpu.dcache.ReadReq_miss_latency::.cpu.data     31030000                       # number of ReadReq miss cycles
system.cpu.dcache.ReadReq_miss_latency::total     31030000                       # number of ReadReq miss cycles
system.cpu.dcache.ReadReq_accesses::.cpu.data      2043697                       # number of ReadReq accesses(hits+misses)
system.cpu.dcache.ReadReq_accesses::total      2043697                       # number of ReadReq accesses(hits+misses)
system.cpu.dcache.ReadReq_miss_rate::.cpu.data     0.000210                       # miss rate for ReadReq accesses
system.cpu.dcache.ReadReq_miss_rate::total     0.000210                       # miss rate for ReadReq accesses
system.cpu.dcache.ReadReq_avg_miss_latency::.cpu.data 72331.002331                       # average ReadReq miss latency
system.cpu.dcache.ReadReq_avg_miss_latency::total 72331.002331                       # average ReadReq miss latency
system.cpu.dcache.ReadReq_mshr_hits::.cpu.data           19                       # number of ReadReq MSHR hits
system.cpu.dcache.ReadReq_mshr_hits::total           19                       # number of ReadReq MSHR hits
system.cpu.dcache.ReadReq_mshr_misses::.cpu.data          410                       # number of ReadReq MSHR misses
system.cpu.dcache.ReadReq_mshr_misses::total          410                       # number of ReadReq MSHR misses
system.cpu.dcache.ReadReq_mshr_miss_latency::.cpu.data     28258000                       # number of ReadReq MSHR miss cycles
system.cpu.dcache.ReadReq_mshr_miss_latency::total     28258000                       # number of ReadReq MSHR miss cycles
system.cpu.dcache.ReadReq_mshr_miss_rate::.cpu.data     0.000201                       # mshr miss rate for ReadReq accesses
system.cpu.dcache.ReadReq_mshr_miss_rate::total     0.000201                       # mshr miss rate for ReadReq accesses
system.cpu.dcache.ReadReq_avg_mshr_miss_latency::.cpu.data 68921.951220                       # average ReadReq mshr miss latency
system.cpu.dcache.ReadReq_avg_mshr_miss_latency::total 68921.951220                       # average ReadReq mshr miss latency
system.cpu.dcache.WriteReq_hits::.cpu.data     81706916                       # number of WriteReq hits
system.cpu.dcache.WriteReq_hits::total       81706916                       # number of WriteReq hits
system.cpu.dcache.WriteReq_misses::.cpu.data      2631333                       # number of WriteReq misses
system.cpu.dcache.WriteReq_misses::total      2631333                       # number of WriteReq misses
system.cpu.dcache.WriteReq_miss_latency::.cpu.data 351304922000                       # number of WriteReq miss cycles
system.cpu.dcache.WriteReq_miss_latency::total 351304922000                       # number of WriteReq miss cycles
system.cpu.dcache.WriteReq_accesses::.cpu.data     84338249                       # number of WriteReq accesses(hits+misses)
system.cpu.dcache.WriteReq_accesses::total     84338249                       # number of WriteReq accesses(hits+misses)
system.cpu.dcache.WriteReq_miss_rate::.cpu.data     0.031200                       # miss rate for WriteReq accesses
system.cpu.dcache.WriteReq_miss_rate::total     0.031200                       # miss rate for WriteReq accesses
system.cpu.dcache.WriteReq_avg_miss_latency::.cpu.data 133508.348050                       # average WriteReq miss latency
system.cpu.dcache.WriteReq_avg_miss_latency::total 133508.348050                       # average WriteReq miss latency
system.cpu.dcache.WriteReq_mshr_hits::.cpu.data      1315214                       # number of WriteReq MSHR hits
system.cpu.dcache.WriteReq_mshr_hits::total      1315214                       # number of WriteReq MSHR hits
system.cpu.dcache.WriteReq_mshr_misses::.cpu.data      1316119                       # number of WriteReq MSHR misses
system.cpu.dcache.WriteReq_mshr_misses::total      1316119                       # number of WriteReq MSHR misses
system.cpu.dcache.WriteReq_mshr_miss_latency::.cpu.data 168468850000                       # number of WriteReq MSHR miss cycles
system.cpu.dcache.WriteReq_mshr_miss_latency::total 168468850000                       # number of WriteReq MSHR miss cycles
system.cpu.dcache.WriteReq_mshr_miss_rate::.cpu.data     0.015605                       # mshr miss rate for WriteReq accesses
system.cpu.dcache.WriteReq_mshr_miss_rate::total     0.015605                       # mshr miss rate for WriteReq accesses
system.cpu.dcache.WriteReq_avg_mshr_miss_latency::.cpu.data 128004.268611                       # average WriteReq mshr miss latency
system.cpu.dcache.WriteReq_avg_mshr_miss_latency::total 128004.268611                       # average WriteReq mshr miss latency
system.cpu.dcache.SoftPFReq_hits::.cpu.data           48                       # number of SoftPFReq hits
system.cpu.dcache.SoftPFReq_hits::total            48                       # number of SoftPFReq hits
system.cpu.dcache.SoftPFReq_misses::.cpu.data           23                       # number of SoftPFReq misses
system.cpu.dcache.SoftPFReq_misses::total           23                       # number of SoftPFReq misses
system.cpu.dcache.SoftPFReq_accesses::.cpu.data           71                       # number of SoftPFReq accesses(hits+misses)
system.cpu.dcache.SoftPFReq_accesses::total           71                       # number of SoftPFReq accesses(hits+misses)
system.cpu.dcache.SoftPFReq_miss_rate::.cpu.data     0.323944                       # miss rate for SoftPFReq accesses
system.cpu.dcache.SoftPFReq_miss_rate::total     0.323944                       # miss rate for SoftPFReq accesses
system.cpu.dcache.SoftPFReq_mshr_misses::.cpu.data           12                       # number of SoftPFReq MSHR misses
system.cpu.dcache.SoftPFReq_mshr_misses::total           12                       # number of SoftPFReq MSHR misses
system.cpu.dcache.SoftPFReq_mshr_miss_latency::.cpu.data      1498000                       # number of SoftPFReq MSHR miss cycles
system.cpu.dcache.SoftPFReq_mshr_miss_latency::total      1498000                       # number of SoftPFReq MSHR miss cycles
system.cpu.dcache.SoftPFReq_mshr_miss_rate::.cpu.data     0.169014                       # mshr miss rate for SoftPFReq accesses
system.cpu.dcache.SoftPFReq_mshr_miss_rate::total     0.169014                       # mshr miss rate for SoftPFReq accesses
system.cpu.dcache.SoftPFReq_avg_mshr_miss_latency::.cpu.data 124833.333333                       # average SoftPFReq mshr miss latency
system.cpu.dcache.SoftPFReq_avg_mshr_miss_latency::total 124833.333333                       # average SoftPFReq mshr miss latency
system.cpu.dcache.LoadLockedReq_hits::.cpu.data           34                       # number of LoadLockedReq hits
system.cpu.dcache.LoadLockedReq_hits::total           34                       # number of LoadLockedReq hits
system.cpu.dcache.LoadLockedReq_accesses::.cpu.data           34                       # number of LoadLockedReq accesses(hits+misses)
system.cpu.dcache.LoadLockedReq_accesses::total           34                       # number of LoadLockedReq accesses(hits+misses)
system.cpu.dcache.StoreCondReq_hits::.cpu.data           34                       # number of StoreCondReq hits
system.cpu.dcache.StoreCondReq_hits::total           34                       # number of StoreCondReq hits
system.cpu.dcache.StoreCondReq_accesses::.cpu.data           34                       # number of StoreCondReq accesses(hits+misses)
system.cpu.dcache.StoreCondReq_accesses::total           34                       # number of StoreCondReq accesses(hits+misses)
system.cpu.dcache.tags.pwrStateResidencyTicks::UNDEFINED 371562453000                       # Cumulative time (in ticks) in various power states
system.cpu.dcache.tags.tagsinuse           127.982192                       # Cycle average of tags in use
system.cpu.dcache.tags.total_refs            85066841                       # Total number of references to valid blocks.
system.cpu.dcache.tags.sampled_refs           1316541                       # Sample count of references to valid blocks.
system.cpu.dcache.tags.avg_refs             64.613894                       # Average number of references to valid blocks.
system.cpu.dcache.tags.warmup_cycle            258000                       # Cycle when the warmup percentage was hit.
system.cpu.dcache.tags.occ_blocks::.cpu.data   127.982192                       # Average occupied blocks per requestor
system.cpu.dcache.tags.occ_percent::.cpu.data     0.999861                       # Average percentage of cache occupancy
system.cpu.dcache.tags.occ_percent::total     0.999861                       # Average percentage of cache occupancy
system.cpu.dcache.tags.occ_task_id_blocks::1024          128                       # Occupied blocks per task id
system.cpu.dcache.tags.age_task_id_blocks_1024::0           36                       # Occupied blocks per task id
system.cpu.dcache.tags.age_task_id_blocks_1024::1           92                       # Occupied blocks per task id
system.cpu.dcache.tags.occ_task_id_percent::1024            1                       # Percentage of cache occupancy per task id
system.cpu.dcache.tags.tag_accesses         174080711                       # Number of tag accesses
system.cpu.dcache.tags.data_accesses        174080711                       # Number of data accesses
system.cpu.itb.walker.pwrStateResidencyTicks::UNDEFINED 371562453000                       # Cumulative time (in ticks) in various power states
system.cpu.itb.stage2_mmu.stage2_tlb.walker.pwrStateResidencyTicks::UNDEFINED 371562453000                       # Cumulative time (in ticks) in various power states

---------- End Simulation Statistics   ----------
