
---------- Begin Simulation Statistics ----------
final_tick                               118408476000                       # Number of ticks from beginning of simulation (restored from checkpoints and never reset)
host_inst_rate                                 170089                       # Simulator instruction rate (inst/s)
host_mem_usage                                 725828                       # Number of bytes of host memory used
host_op_rate                                   171998                       # Simulator op (including micro ops) rate (op/s)
host_seconds                                   587.93                       # Real time elapsed on the host
host_tick_rate                              201399222                       # Simulator tick rate (ticks/s)
sim_freq                                 1000000000000                       # Frequency of simulated ticks
sim_insts                                   100000000                       # Number of instructions simulated
sim_ops                                     101122354                       # Number of ops (including micro ops) simulated
sim_seconds                                  0.118408                       # Number of seconds simulated
sim_ticks                                118408476000                       # Number of ticks simulated
system.cpu.branchPred.BTBCorrect                    0                       # Number of correct BTB predictions (this stat may not work properly.
system.cpu.branchPred.BTBHitPct             84.822821                       # BTB Hit Percentage
system.cpu.branchPred.BTBHits                 4085453                       # Number of BTB hits
system.cpu.branchPred.BTBLookups              4816455                       # Number of BTB lookups
system.cpu.branchPred.RASInCorrect                 20                       # Number of incorrect RAS predictions.
system.cpu.branchPred.condIncorrect            345769                       # Number of conditional branches incorrect
system.cpu.branchPred.condPredicted           5101222                       # Number of conditional branches predicted
system.cpu.branchPred.indirectHits             102842                       # Number of indirect target hits.
system.cpu.branchPred.indirectLookups          675317                       # Number of indirect predictor lookups.
system.cpu.branchPred.indirectMisses           572475                       # Number of indirect misses.
system.cpu.branchPred.lookups                 6509116                       # Number of BP lookups
system.cpu.branchPred.usedRAS                  312570                       # Number of times the RAS was used to get a target.
system.cpu.branchPredindirectMispredicted        35006                       # Number of mispredicted indirect branches.
system.cpu.committedInsts                   100000000                       # Number of instructions committed
system.cpu.committedOps                     101122354                       # Number of ops (including micro ops) committed
system.cpu.cpi                               1.184085                       # CPI: cycles per instruction
system.cpu.discardedOps                        956356                       # Number of ops (including micro ops) which were discarded before commit
system.cpu.dtb.accesses                             0                       # DTB accesses
system.cpu.dtb.align_faults                         0                       # Number of TLB faults due to alignment restrictions
system.cpu.dtb.domain_faults                        0                       # Number of TLB faults due to domain restrictions
system.cpu.dtb.flush_entries                        0                       # Number of entries that have been flushed from TLB
system.cpu.dtb.flush_tlb                            0                       # Number of times complete TLB was flushed
system.cpu.dtb.flush_tlb_asid                       0                       # Number of times TLB was flushed by ASID
system.cpu.dtb.flush_tlb_mva                        0                       # Number of times TLB was flushed by MVA
system.cpu.dtb.flush_tlb_mva_asid                   0                       # Number of times TLB was flushed by MVA & ASID
system.cpu.dtb.hits                                 0                       # DTB hits
system.cpu.dtb.inst_accesses                        0                       # ITB inst accesses
system.cpu.dtb.inst_hits                            0                       # ITB inst hits
system.cpu.dtb.inst_misses                          0                       # ITB inst misses
system.cpu.dtb.misses                               0                       # DTB misses
system.cpu.dtb.perms_faults                         0                       # Number of TLB faults due to permissions restrictions
system.cpu.dtb.prefetch_faults                      0                       # Number of TLB faults due to prefetch
system.cpu.dtb.read_accesses                        0                       # DTB read accesses
system.cpu.dtb.read_hits                            0                       # DTB read hits
system.cpu.dtb.read_misses                          0                       # DTB read misses
system.cpu.dtb.stage2_mmu.stage2_tlb.accesses            0                       # DTB accesses
system.cpu.dtb.stage2_mmu.stage2_tlb.align_faults            0                       # Number of TLB faults due to alignment restrictions
system.cpu.dtb.stage2_mmu.stage2_tlb.domain_faults            0                       # Number of TLB faults due to domain restrictions
system.cpu.dtb.stage2_mmu.stage2_tlb.flush_entries            0                       # Number of entries that have been flushed from TLB
system.cpu.dtb.stage2_mmu.stage2_tlb.flush_tlb            0                       # Number of times complete TLB was flushed
system.cpu.dtb.stage2_mmu.stage2_tlb.flush_tlb_asid            0                       # Number of times TLB was flushed by ASID
system.cpu.dtb.stage2_mmu.stage2_tlb.flush_tlb_mva            0                       # Number of times TLB was flushed by MVA
system.cpu.dtb.stage2_mmu.stage2_tlb.flush_tlb_mva_asid            0                       # Number of times TLB was flushed by MVA & ASID
system.cpu.dtb.stage2_mmu.stage2_tlb.hits            0                       # DTB hits
system.cpu.dtb.stage2_mmu.stage2_tlb.inst_accesses            0                       # ITB inst accesses
system.cpu.dtb.stage2_mmu.stage2_tlb.inst_hits            0                       # ITB inst hits
system.cpu.dtb.stage2_mmu.stage2_tlb.inst_misses            0                       # ITB inst misses
system.cpu.dtb.stage2_mmu.stage2_tlb.misses            0                       # DTB misses
system.cpu.dtb.stage2_mmu.stage2_tlb.perms_faults            0                       # Number of TLB faults due to permissions restrictions
system.cpu.dtb.stage2_mmu.stage2_tlb.prefetch_faults            0                       # Number of TLB faults due to prefetch
system.cpu.dtb.stage2_mmu.stage2_tlb.read_accesses            0                       # DTB read accesses
system.cpu.dtb.stage2_mmu.stage2_tlb.read_hits            0                       # DTB read hits
system.cpu.dtb.stage2_mmu.stage2_tlb.read_misses            0                       # DTB read misses
system.cpu.dtb.stage2_mmu.stage2_tlb.walker.walkRequestOrigin_Requested::Data            0                       # Table walker requests started/completed, data/inst
system.cpu.dtb.stage2_mmu.stage2_tlb.walker.walkRequestOrigin_Requested::Inst            0                       # Table walker requests started/completed, data/inst
system.cpu.dtb.stage2_mmu.stage2_tlb.walker.walkRequestOrigin_Requested::total            0                       # Table walker requests started/completed, data/inst
system.cpu.dtb.stage2_mmu.stage2_tlb.walker.walkRequestOrigin_Completed::Data            0                       # Table walker requests started/completed, data/inst
system.cpu.dtb.stage2_mmu.stage2_tlb.walker.walkRequestOrigin_Completed::Inst            0                       # Table walker requests started/completed, data/inst
system.cpu.dtb.stage2_mmu.stage2_tlb.walker.walkRequestOrigin_Completed::total            0                       # Table walker requests started/completed, data/inst
system.cpu.dtb.stage2_mmu.stage2_tlb.walker.walkRequestOrigin::total            0                       # Table walker requests started/completed, data/inst
system.cpu.dtb.stage2_mmu.stage2_tlb.walker.walks            0                       # Table walker walks requested
system.cpu.dtb.stage2_mmu.stage2_tlb.write_accesses            0                       # DTB write accesses
system.cpu.dtb.stage2_mmu.stage2_tlb.write_hits            0                       # DTB write hits
system.cpu.dtb.stage2_mmu.stage2_tlb.write_misses            0                       # DTB write misses
system.cpu.dtb.walker.walkRequestOrigin_Requested::Data            0                       # Table walker requests started/completed, data/inst
system.cpu.dtb.walker.walkRequestOrigin_Requested::Inst            0                       # Table walker requests started/completed, data/inst
system.cpu.dtb.walker.walkRequestOrigin_Requested::total            0                       # Table walker requests started/completed, data/inst
system.cpu.dtb.walker.walkRequestOrigin_Completed::Data            0                       # Table walker requests started/completed, data/inst
system.cpu.dtb.walker.walkRequestOrigin_Completed::Inst            0                       # Table walker requests started/completed, data/inst
system.cpu.dtb.walker.walkRequestOrigin_Completed::total            0                       # Table walker requests started/completed, data/inst
system.cpu.dtb.walker.walkRequestOrigin::total            0                       # Table walker requests started/completed, data/inst
system.cpu.dtb.walker.walks                         0                       # Table walker walks requested
system.cpu.dtb.write_accesses                       0                       # DTB write accesses
system.cpu.dtb.write_hits                           0                       # DTB write hits
system.cpu.dtb.write_misses                         0                       # DTB write misses
system.cpu.fetch2.amo_instructions                  0                       # Number of memory atomic instructions successfully decoded
system.cpu.fetch2.fp_instructions                   0                       # Number of floating point instructions successfully decoded
system.cpu.fetch2.int_instructions           48890382                       # Number of integer instructions successfully decoded
system.cpu.fetch2.load_instructions          40551794                       # Number of memory load instructions successfully decoded
system.cpu.fetch2.store_instructions          6262725                       # Number of memory store instructions successfully decoded
system.cpu.fetch2.vec_instructions                  0                       # Number of SIMD instructions successfully decoded
system.cpu.idleCycles                         2621933                       # Total number of cycles that the object has spent stopped
system.cpu.ipc                               0.844534                       # IPC: instructions per cycle
system.cpu.itb.accesses                             0                       # DTB accesses
system.cpu.itb.align_faults                         0                       # Number of TLB faults due to alignment restrictions
system.cpu.itb.domain_faults                        0                       # Number of TLB faults due to domain restrictions
system.cpu.itb.flush_entries                        0                       # Number of entries that have been flushed from TLB
system.cpu.itb.flush_tlb                            0                       # Number of times complete TLB was flushed
system.cpu.itb.flush_tlb_asid                       0                       # Number of times TLB was flushed by ASID
system.cpu.itb.flush_tlb_mva                        0                       # Number of times TLB was flushed by MVA
system.cpu.itb.flush_tlb_mva_asid                   0                       # Number of times TLB was flushed by MVA & ASID
system.cpu.itb.hits                                 0                       # DTB hits
system.cpu.itb.inst_accesses                        0                       # ITB inst accesses
system.cpu.itb.inst_hits                            0                       # ITB inst hits
system.cpu.itb.inst_misses                          0                       # ITB inst misses
system.cpu.itb.misses                               0                       # DTB misses
system.cpu.itb.perms_faults                         0                       # Number of TLB faults due to permissions restrictions
system.cpu.itb.prefetch_faults                      0                       # Number of TLB faults due to prefetch
system.cpu.itb.read_accesses                        0                       # DTB read accesses
system.cpu.itb.read_hits                            0                       # DTB read hits
system.cpu.itb.read_misses                          0                       # DTB read misses
system.cpu.itb.stage2_mmu.stage2_tlb.accesses            0                       # DTB accesses
system.cpu.itb.stage2_mmu.stage2_tlb.align_faults            0                       # Number of TLB faults due to alignment restrictions
system.cpu.itb.stage2_mmu.stage2_tlb.domain_faults            0                       # Number of TLB faults due to domain restrictions
system.cpu.itb.stage2_mmu.stage2_tlb.flush_entries            0                       # Number of entries that have been flushed from TLB
system.cpu.itb.stage2_mmu.stage2_tlb.flush_tlb            0                       # Number of times complete TLB was flushed
system.cpu.itb.stage2_mmu.stage2_tlb.flush_tlb_asid            0                       # Number of times TLB was flushed by ASID
system.cpu.itb.stage2_mmu.stage2_tlb.flush_tlb_mva            0                       # Number of times TLB was flushed by MVA
system.cpu.itb.stage2_mmu.stage2_tlb.flush_tlb_mva_asid            0                       # Number of times TLB was flushed by MVA & ASID
system.cpu.itb.stage2_mmu.stage2_tlb.hits            0                       # DTB hits
system.cpu.itb.stage2_mmu.stage2_tlb.inst_accesses            0                       # ITB inst accesses
system.cpu.itb.stage2_mmu.stage2_tlb.inst_hits            0                       # ITB inst hits
system.cpu.itb.stage2_mmu.stage2_tlb.inst_misses            0                       # ITB inst misses
system.cpu.itb.stage2_mmu.stage2_tlb.misses            0                       # DTB misses
system.cpu.itb.stage2_mmu.stage2_tlb.perms_faults            0                       # Number of TLB faults due to permissions restrictions
system.cpu.itb.stage2_mmu.stage2_tlb.prefetch_faults            0                       # Number of TLB faults due to prefetch
system.cpu.itb.stage2_mmu.stage2_tlb.read_accesses            0                       # DTB read accesses
system.cpu.itb.stage2_mmu.stage2_tlb.read_hits            0                       # DTB read hits
system.cpu.itb.stage2_mmu.stage2_tlb.read_misses            0                       # DTB read misses
system.cpu.itb.stage2_mmu.stage2_tlb.walker.walkRequestOrigin_Requested::Data            0                       # Table walker requests started/completed, data/inst
system.cpu.itb.stage2_mmu.stage2_tlb.walker.walkRequestOrigin_Requested::Inst            0                       # Table walker requests started/completed, data/inst
system.cpu.itb.stage2_mmu.stage2_tlb.walker.walkRequestOrigin_Requested::total            0                       # Table walker requests started/completed, data/inst
system.cpu.itb.stage2_mmu.stage2_tlb.walker.walkRequestOrigin_Completed::Data            0                       # Table walker requests started/completed, data/inst
system.cpu.itb.stage2_mmu.stage2_tlb.walker.walkRequestOrigin_Completed::Inst            0                       # Table walker requests started/completed, data/inst
system.cpu.itb.stage2_mmu.stage2_tlb.walker.walkRequestOrigin_Completed::total            0                       # Table walker requests started/completed, data/inst
system.cpu.itb.stage2_mmu.stage2_tlb.walker.walkRequestOrigin::total            0                       # Table walker requests started/completed, data/inst
system.cpu.itb.stage2_mmu.stage2_tlb.walker.walks            0                       # Table walker walks requested
system.cpu.itb.stage2_mmu.stage2_tlb.write_accesses            0                       # DTB write accesses
system.cpu.itb.stage2_mmu.stage2_tlb.write_hits            0                       # DTB write hits
system.cpu.itb.stage2_mmu.stage2_tlb.write_misses            0                       # DTB write misses
system.cpu.itb.walker.walkRequestOrigin_Requested::Data            0                       # Table walker requests started/completed, data/inst
system.cpu.itb.walker.walkRequestOrigin_Requested::Inst            0                       # Table walker requests started/completed, data/inst
system.cpu.itb.walker.walkRequestOrigin_Requested::total            0                       # Table walker requests started/completed, data/inst
system.cpu.itb.walker.walkRequestOrigin_Completed::Data            0                       # Table walker requests started/completed, data/inst
system.cpu.itb.walker.walkRequestOrigin_Completed::Inst            0                       # Table walker requests started/completed, data/inst
system.cpu.itb.walker.walkRequestOrigin_Completed::total            0                       # Table walker requests started/completed, data/inst
system.cpu.itb.walker.walkRequestOrigin::total            0                       # Table walker requests started/completed, data/inst
system.cpu.itb.walker.walks                         0                       # Table walker walks requested
system.cpu.itb.write_accesses                       0                       # DTB write accesses
system.cpu.itb.write_hits                           0                       # DTB write hits
system.cpu.itb.write_misses                         0                       # DTB write misses
system.cpu.numCycles                        118408476                       # number of cpu cycles simulated
system.cpu.numFetchSuspends                         0                       # Number of times Execute suspended instruction fetching
system.cpu.numWorkItemsCompleted                    0                       # number of work items this cpu completed
system.cpu.numWorkItemsStarted                      0                       # number of work items this cpu started
system.cpu.op_class_0::No_OpClass                   0      0.00%      0.00% # Class of committed instruction
system.cpu.op_class_0::IntAlu                55111288     54.50%     54.50% # Class of committed instruction
system.cpu.op_class_0::IntMult                 167845      0.17%     54.67% # Class of committed instruction
system.cpu.op_class_0::IntDiv                       0      0.00%     54.67% # Class of committed instruction
system.cpu.op_class_0::FloatAdd                     0      0.00%     54.67% # Class of committed instruction
system.cpu.op_class_0::FloatCmp                     0      0.00%     54.67% # Class of committed instruction
system.cpu.op_class_0::FloatCvt                     0      0.00%     54.67% # Class of committed instruction
system.cpu.op_class_0::FloatMult                    0      0.00%     54.67% # Class of committed instruction
system.cpu.op_class_0::FloatMultAcc                 0      0.00%     54.67% # Class of committed instruction
system.cpu.op_class_0::FloatDiv                     0      0.00%     54.67% # Class of committed instruction
system.cpu.op_class_0::FloatMisc                    0      0.00%     54.67% # Class of committed instruction
system.cpu.op_class_0::FloatSqrt                    0      0.00%     54.67% # Class of committed instruction
system.cpu.op_class_0::SimdAdd                    380      0.00%     54.67% # Class of committed instruction
system.cpu.op_class_0::SimdAddAcc                   0      0.00%     54.67% # Class of committed instruction
system.cpu.op_class_0::SimdAlu                    470      0.00%     54.67% # Class of committed instruction
system.cpu.op_class_0::SimdCmp                    382      0.00%     54.67% # Class of committed instruction
system.cpu.op_class_0::SimdCvt                      0      0.00%     54.67% # Class of committed instruction
system.cpu.op_class_0::SimdMisc                    53      0.00%     54.67% # Class of committed instruction
system.cpu.op_class_0::SimdMult                     0      0.00%     54.67% # Class of committed instruction
system.cpu.op_class_0::SimdMultAcc                  0      0.00%     54.67% # Class of committed instruction
system.cpu.op_class_0::SimdShift                    0      0.00%     54.67% # Class of committed instruction
system.cpu.op_class_0::SimdShiftAcc                 0      0.00%     54.67% # Class of committed instruction
system.cpu.op_class_0::SimdDiv                      0      0.00%     54.67% # Class of committed instruction
system.cpu.op_class_0::SimdSqrt                     0      0.00%     54.67% # Class of committed instruction
system.cpu.op_class_0::SimdFloatAdd            282752      0.28%     54.95% # Class of committed instruction
system.cpu.op_class_0::SimdFloatAlu                 0      0.00%     54.95% # Class of committed instruction
system.cpu.op_class_0::SimdFloatCmp            266991      0.26%     55.21% # Class of committed instruction
system.cpu.op_class_0::SimdFloatCvt            163440      0.16%     55.37% # Class of committed instruction
system.cpu.op_class_0::SimdFloatDiv             54308      0.05%     55.43% # Class of committed instruction
system.cpu.op_class_0::SimdFloatMisc           505318      0.50%     55.93% # Class of committed instruction
system.cpu.op_class_0::SimdFloatMult            36718      0.04%     55.96% # Class of committed instruction
system.cpu.op_class_0::SimdFloatMultAcc         10949      0.01%     55.97% # Class of committed instruction
system.cpu.op_class_0::SimdFloatSqrt                0      0.00%     55.97% # Class of committed instruction
system.cpu.op_class_0::SimdReduceAdd                0      0.00%     55.97% # Class of committed instruction
system.cpu.op_class_0::SimdReduceAlu                0      0.00%     55.97% # Class of committed instruction
system.cpu.op_class_0::SimdReduceCmp                0      0.00%     55.97% # Class of committed instruction
system.cpu.op_class_0::SimdFloatReduceAdd            0      0.00%     55.97% # Class of committed instruction
system.cpu.op_class_0::SimdFloatReduceCmp            0      0.00%     55.97% # Class of committed instruction
system.cpu.op_class_0::SimdAes                      0      0.00%     55.97% # Class of committed instruction
system.cpu.op_class_0::SimdAesMix                   0      0.00%     55.97% # Class of committed instruction
system.cpu.op_class_0::SimdSha1Hash                 0      0.00%     55.97% # Class of committed instruction
system.cpu.op_class_0::SimdSha1Hash2                0      0.00%     55.97% # Class of committed instruction
system.cpu.op_class_0::SimdSha256Hash               0      0.00%     55.97% # Class of committed instruction
system.cpu.op_class_0::SimdSha256Hash2              0      0.00%     55.97% # Class of committed instruction
system.cpu.op_class_0::SimdShaSigma2                0      0.00%     55.97% # Class of committed instruction
system.cpu.op_class_0::SimdShaSigma3                0      0.00%     55.97% # Class of committed instruction
system.cpu.op_class_0::SimdPredAlu                  0      0.00%     55.97% # Class of committed instruction
system.cpu.op_class_0::MemRead               38138372     37.72%     93.69% # Class of committed instruction
system.cpu.op_class_0::MemWrite               6383088      6.31%    100.00% # Class of committed instruction
system.cpu.op_class_0::FloatMemRead                 0      0.00%    100.00% # Class of committed instruction
system.cpu.op_class_0::FloatMemWrite                0      0.00%    100.00% # Class of committed instruction
system.cpu.op_class_0::IprAccess                    0      0.00%    100.00% # Class of committed instruction
system.cpu.op_class_0::InstPrefetch                 0      0.00%    100.00% # Class of committed instruction
system.cpu.op_class_0::total                101122354                       # Class of committed instruction
system.cpu.tickCycles                       115786543                       # Number of cycles that the object actually ticked
system.cpu.workload.numSyscalls                    33                       # Number of system calls
system.membus.snoop_filter.hit_multi_requests            0                       # Number of requests hitting in the snoop filter with multiple (>1) holders of the requested data.
system.membus.snoop_filter.hit_multi_snoops            0                       # Number of snoops hitting in the snoop filter with multiple (>1) holders of the requested data.
system.membus.snoop_filter.hit_single_requests            0                       # Number of requests hitting in the snoop filter with a single holder of the requested data.
system.membus.snoop_filter.hit_single_snoops            0                       # Number of snoops hitting in the snoop filter with a single holder of the requested data.
system.membus.snoop_filter.tot_requests          5788                       # Total number of requests made to the snoop filter.
system.membus.snoop_filter.tot_snoops               0                       # Total number of snoops made to the snoop filter.
system.tol2bus.snoop_filter.hit_multi_requests          829                       # Number of requests hitting in the snoop filter with multiple (>1) holders of the requested data.
system.tol2bus.snoop_filter.hit_multi_snoops            0                       # Number of snoops hitting in the snoop filter with multiple (>1) holders of the requested data.
system.tol2bus.snoop_filter.hit_single_requests        65201                       # Number of requests hitting in the snoop filter with a single holder of the requested data.
system.tol2bus.snoop_filter.hit_single_snoops            0                       # Number of snoops hitting in the snoop filter with a single holder of the requested data.
system.tol2bus.snoop_filter.tot_requests       131906                       # Total number of requests made to the snoop filter.
system.tol2bus.snoop_filter.tot_snoops              0                       # Total number of snoops made to the snoop filter.
system.membus.pwrStateResidencyTicks::UNDEFINED 118408476000                       # Cumulative time (in ticks) in various power states
system.membus.trans_dist::ReadResp               2119                       # Transaction distribution
system.membus.trans_dist::ReadExReq              3669                       # Transaction distribution
system.membus.trans_dist::ReadExResp             3669                       # Transaction distribution
system.membus.trans_dist::ReadSharedReq          2119                       # Transaction distribution
system.membus.pkt_count_system.l2.mem_side::system.mem_ctrls.port        11576                       # Packet count per connected master and slave (bytes)
system.membus.pkt_count::total                  11576                       # Packet count per connected master and slave (bytes)
system.membus.pkt_size_system.l2.mem_side::system.mem_ctrls.port       370432                       # Cumulative packet size per connected master and slave (bytes)
system.membus.pkt_size::total                  370432                       # Cumulative packet size per connected master and slave (bytes)
system.membus.snoops                                0                       # Total snoops (count)
system.membus.snoopTraffic                          0                       # Total snoop traffic (bytes)
system.membus.snoop_fanout::samples              5788                       # Request fanout histogram
system.membus.snoop_fanout::mean                    0                       # Request fanout histogram
system.membus.snoop_fanout::stdev                   0                       # Request fanout histogram
system.membus.snoop_fanout::underflows              0      0.00%      0.00% # Request fanout histogram
system.membus.snoop_fanout::0                    5788    100.00%    100.00% # Request fanout histogram
system.membus.snoop_fanout::1                       0      0.00%    100.00% # Request fanout histogram
system.membus.snoop_fanout::overflows               0      0.00%    100.00% # Request fanout histogram
system.membus.snoop_fanout::min_value               0                       # Request fanout histogram
system.membus.snoop_fanout::max_value               0                       # Request fanout histogram
system.membus.snoop_fanout::total                5788                       # Request fanout histogram
system.membus.respLayer1.occupancy           30859250                       # Layer occupancy (ticks)
system.membus.respLayer1.utilization              0.0                       # Layer utilization (%)
system.membus.reqLayer0.occupancy             5788000                       # Layer occupancy (ticks)
system.membus.reqLayer0.utilization               0.0                       # Layer utilization (%)
system.tol2bus.pwrStateResidencyTicks::UNDEFINED 118408476000                       # Cumulative time (in ticks) in various power states
system.tol2bus.trans_dist::ReadResp             14345                       # Transaction distribution
system.tol2bus.trans_dist::WritebackDirty        61742                       # Transaction distribution
system.tol2bus.trans_dist::WritebackClean         1242                       # Transaction distribution
system.tol2bus.trans_dist::CleanEvict            2201                       # Transaction distribution
system.tol2bus.trans_dist::ReadExReq            52376                       # Transaction distribution
system.tol2bus.trans_dist::ReadExResp           52376                       # Transaction distribution
system.tol2bus.trans_dist::ReadCleanReq          1754                       # Transaction distribution
system.tol2bus.trans_dist::ReadSharedReq        12591                       # Transaction distribution
system.tol2bus.pkt_count_system.cpu.icache.mem_side::system.l2.cpu_side         4750                       # Packet count per connected master and slave (bytes)
system.tol2bus.pkt_count_system.cpu.dcache.mem_side::system.l2.cpu_side       193877                       # Packet count per connected master and slave (bytes)
system.tol2bus.pkt_count::total                198627                       # Packet count per connected master and slave (bytes)
system.tol2bus.pkt_size_system.cpu.icache.mem_side::system.l2.cpu_side       191744                       # Cumulative packet size per connected master and slave (bytes)
system.tol2bus.pkt_size_system.cpu.dcache.mem_side::system.l2.cpu_side      8109376                       # Cumulative packet size per connected master and slave (bytes)
system.tol2bus.pkt_size::total                8301120                       # Cumulative packet size per connected master and slave (bytes)
system.tol2bus.snoops                               0                       # Total snoops (count)
system.tol2bus.snoopTraffic                         0                       # Total snoop traffic (bytes)
system.tol2bus.snoop_fanout::samples            66721                       # Request fanout histogram
system.tol2bus.snoop_fanout::mean            0.012665                       # Request fanout histogram
system.tol2bus.snoop_fanout::stdev           0.111823                       # Request fanout histogram
system.tol2bus.snoop_fanout::underflows             0      0.00%      0.00% # Request fanout histogram
system.tol2bus.snoop_fanout::0                  65876     98.73%     98.73% # Request fanout histogram
system.tol2bus.snoop_fanout::1                    845      1.27%    100.00% # Request fanout histogram
system.tol2bus.snoop_fanout::2                      0      0.00%    100.00% # Request fanout histogram
system.tol2bus.snoop_fanout::overflows              0      0.00%    100.00% # Request fanout histogram
system.tol2bus.snoop_fanout::min_value              0                       # Request fanout histogram
system.tol2bus.snoop_fanout::max_value              1                       # Request fanout histogram
system.tol2bus.snoop_fanout::total              66721                       # Request fanout histogram
system.tol2bus.reqLayer0.occupancy          257874000                       # Layer occupancy (ticks)
system.tol2bus.reqLayer0.utilization              0.2                       # Layer utilization (%)
system.tol2bus.respLayer1.occupancy         194908992                       # Layer occupancy (ticks)
system.tol2bus.respLayer1.utilization             0.2                       # Layer utilization (%)
system.tol2bus.respLayer0.occupancy           5264997                       # Layer occupancy (ticks)
system.tol2bus.respLayer0.utilization             0.0                       # Layer utilization (%)
system.voltage_domain.voltage                       1                       # Voltage in Volts
system.clk_domain.clock                          1000                       # Clock period in ticks
system.l2.pwrStateResidencyTicks::UNDEFINED 118408476000                       # Cumulative time (in ticks) in various power states
system.l2.demand_hits::.cpu.inst                  435                       # number of demand (read+write) hits
system.l2.demand_hits::.cpu.data                60488                       # number of demand (read+write) hits
system.l2.demand_hits::total                    60923                       # number of demand (read+write) hits
system.l2.overall_hits::.cpu.inst                 435                       # number of overall hits
system.l2.overall_hits::.cpu.data               60488                       # number of overall hits
system.l2.overall_hits::total                   60923                       # number of overall hits
system.l2.demand_misses::.cpu.inst               1319                       # number of demand (read+write) misses
system.l2.demand_misses::.cpu.data               4479                       # number of demand (read+write) misses
system.l2.demand_misses::total                   5798                       # number of demand (read+write) misses
system.l2.overall_misses::.cpu.inst              1319                       # number of overall misses
system.l2.overall_misses::.cpu.data              4479                       # number of overall misses
system.l2.overall_misses::total                  5798                       # number of overall misses
system.l2.demand_miss_latency::.cpu.inst    129876000                       # number of demand (read+write) miss cycles
system.l2.demand_miss_latency::.cpu.data    446862000                       # number of demand (read+write) miss cycles
system.l2.demand_miss_latency::total        576738000                       # number of demand (read+write) miss cycles
system.l2.overall_miss_latency::.cpu.inst    129876000                       # number of overall miss cycles
system.l2.overall_miss_latency::.cpu.data    446862000                       # number of overall miss cycles
system.l2.overall_miss_latency::total       576738000                       # number of overall miss cycles
system.l2.demand_accesses::.cpu.inst             1754                       # number of demand (read+write) accesses
system.l2.demand_accesses::.cpu.data            64967                       # number of demand (read+write) accesses
system.l2.demand_accesses::total                66721                       # number of demand (read+write) accesses
system.l2.overall_accesses::.cpu.inst            1754                       # number of overall (read+write) accesses
system.l2.overall_accesses::.cpu.data           64967                       # number of overall (read+write) accesses
system.l2.overall_accesses::total               66721                       # number of overall (read+write) accesses
system.l2.demand_miss_rate::.cpu.inst        0.751995                       # miss rate for demand accesses
system.l2.demand_miss_rate::.cpu.data        0.068943                       # miss rate for demand accesses
system.l2.demand_miss_rate::total            0.086899                       # miss rate for demand accesses
system.l2.overall_miss_rate::.cpu.inst       0.751995                       # miss rate for overall accesses
system.l2.overall_miss_rate::.cpu.data       0.068943                       # miss rate for overall accesses
system.l2.overall_miss_rate::total           0.086899                       # miss rate for overall accesses
system.l2.demand_avg_miss_latency::.cpu.inst 98465.504170                       # average overall miss latency
system.l2.demand_avg_miss_latency::.cpu.data 99768.251842                       # average overall miss latency
system.l2.demand_avg_miss_latency::total 99471.886858                       # average overall miss latency
system.l2.overall_avg_miss_latency::.cpu.inst 98465.504170                       # average overall miss latency
system.l2.overall_avg_miss_latency::.cpu.data 99768.251842                       # average overall miss latency
system.l2.overall_avg_miss_latency::total 99471.886858                       # average overall miss latency
system.l2.blocked_cycles::no_mshrs                  0                       # number of cycles access was blocked
system.l2.blocked_cycles::no_targets                0                       # number of cycles access was blocked
system.l2.blocked::no_mshrs                         0                       # number of cycles access was blocked
system.l2.blocked::no_targets                       0                       # number of cycles access was blocked
system.l2.avg_blocked_cycles::no_mshrs            nan                       # average number of cycles each access was blocked
system.l2.avg_blocked_cycles::no_targets          nan                       # average number of cycles each access was blocked
system.l2.demand_mshr_hits::.cpu.inst               2                       # number of demand (read+write) MSHR hits
system.l2.demand_mshr_hits::.cpu.data               8                       # number of demand (read+write) MSHR hits
system.l2.demand_mshr_hits::total                  10                       # number of demand (read+write) MSHR hits
system.l2.overall_mshr_hits::.cpu.inst              2                       # number of overall MSHR hits
system.l2.overall_mshr_hits::.cpu.data              8                       # number of overall MSHR hits
system.l2.overall_mshr_hits::total                 10                       # number of overall MSHR hits
system.l2.demand_mshr_misses::.cpu.inst          1317                       # number of demand (read+write) MSHR misses
system.l2.demand_mshr_misses::.cpu.data          4471                       # number of demand (read+write) MSHR misses
system.l2.demand_mshr_misses::total              5788                       # number of demand (read+write) MSHR misses
system.l2.overall_mshr_misses::.cpu.inst         1317                       # number of overall MSHR misses
system.l2.overall_mshr_misses::.cpu.data         4471                       # number of overall MSHR misses
system.l2.overall_mshr_misses::total             5788                       # number of overall MSHR misses
system.l2.demand_mshr_miss_latency::.cpu.inst    103373000                       # number of demand (read+write) MSHR miss cycles
system.l2.demand_mshr_miss_latency::.cpu.data    356830000                       # number of demand (read+write) MSHR miss cycles
system.l2.demand_mshr_miss_latency::total    460203000                       # number of demand (read+write) MSHR miss cycles
system.l2.overall_mshr_miss_latency::.cpu.inst    103373000                       # number of overall MSHR miss cycles
system.l2.overall_mshr_miss_latency::.cpu.data    356830000                       # number of overall MSHR miss cycles
system.l2.overall_mshr_miss_latency::total    460203000                       # number of overall MSHR miss cycles
system.l2.demand_mshr_miss_rate::.cpu.inst     0.750855                       # mshr miss rate for demand accesses
system.l2.demand_mshr_miss_rate::.cpu.data     0.068820                       # mshr miss rate for demand accesses
system.l2.demand_mshr_miss_rate::total       0.086749                       # mshr miss rate for demand accesses
system.l2.overall_mshr_miss_rate::.cpu.inst     0.750855                       # mshr miss rate for overall accesses
system.l2.overall_mshr_miss_rate::.cpu.data     0.068820                       # mshr miss rate for overall accesses
system.l2.overall_mshr_miss_rate::total      0.086749                       # mshr miss rate for overall accesses
system.l2.demand_avg_mshr_miss_latency::.cpu.inst 78491.268033                       # average overall mshr miss latency
system.l2.demand_avg_mshr_miss_latency::.cpu.data 79809.885932                       # average overall mshr miss latency
system.l2.demand_avg_mshr_miss_latency::total 79509.847961                       # average overall mshr miss latency
system.l2.overall_avg_mshr_miss_latency::.cpu.inst 78491.268033                       # average overall mshr miss latency
system.l2.overall_avg_mshr_miss_latency::.cpu.data 79809.885932                       # average overall mshr miss latency
system.l2.overall_avg_mshr_miss_latency::total 79509.847961                       # average overall mshr miss latency
system.l2.replacements                              0                       # number of replacements
system.l2.WritebackDirty_hits::.writebacks        61742                       # number of WritebackDirty hits
system.l2.WritebackDirty_hits::total            61742                       # number of WritebackDirty hits
system.l2.WritebackDirty_accesses::.writebacks        61742                       # number of WritebackDirty accesses(hits+misses)
system.l2.WritebackDirty_accesses::total        61742                       # number of WritebackDirty accesses(hits+misses)
system.l2.WritebackClean_hits::.writebacks         1198                       # number of WritebackClean hits
system.l2.WritebackClean_hits::total             1198                       # number of WritebackClean hits
system.l2.WritebackClean_accesses::.writebacks         1198                       # number of WritebackClean accesses(hits+misses)
system.l2.WritebackClean_accesses::total         1198                       # number of WritebackClean accesses(hits+misses)
system.l2.ReadExReq_hits::.cpu.data             48707                       # number of ReadExReq hits
system.l2.ReadExReq_hits::total                 48707                       # number of ReadExReq hits
system.l2.ReadExReq_misses::.cpu.data            3669                       # number of ReadExReq misses
system.l2.ReadExReq_misses::total                3669                       # number of ReadExReq misses
system.l2.ReadExReq_miss_latency::.cpu.data    365119000                       # number of ReadExReq miss cycles
system.l2.ReadExReq_miss_latency::total     365119000                       # number of ReadExReq miss cycles
system.l2.ReadExReq_accesses::.cpu.data         52376                       # number of ReadExReq accesses(hits+misses)
system.l2.ReadExReq_accesses::total             52376                       # number of ReadExReq accesses(hits+misses)
system.l2.ReadExReq_miss_rate::.cpu.data     0.070051                       # miss rate for ReadExReq accesses
system.l2.ReadExReq_miss_rate::total         0.070051                       # miss rate for ReadExReq accesses
system.l2.ReadExReq_avg_miss_latency::.cpu.data 99514.581630                       # average ReadExReq miss latency
system.l2.ReadExReq_avg_miss_latency::total 99514.581630                       # average ReadExReq miss latency
system.l2.ReadExReq_mshr_misses::.cpu.data         3669                       # number of ReadExReq MSHR misses
system.l2.ReadExReq_mshr_misses::total           3669                       # number of ReadExReq MSHR misses
system.l2.ReadExReq_mshr_miss_latency::.cpu.data    291739000                       # number of ReadExReq MSHR miss cycles
system.l2.ReadExReq_mshr_miss_latency::total    291739000                       # number of ReadExReq MSHR miss cycles
system.l2.ReadExReq_mshr_miss_rate::.cpu.data     0.070051                       # mshr miss rate for ReadExReq accesses
system.l2.ReadExReq_mshr_miss_rate::total     0.070051                       # mshr miss rate for ReadExReq accesses
system.l2.ReadExReq_avg_mshr_miss_latency::.cpu.data 79514.581630                       # average ReadExReq mshr miss latency
system.l2.ReadExReq_avg_mshr_miss_latency::total 79514.581630                       # average ReadExReq mshr miss latency
system.l2.ReadCleanReq_hits::.cpu.inst            435                       # number of ReadCleanReq hits
system.l2.ReadCleanReq_hits::total                435                       # number of ReadCleanReq hits
system.l2.ReadCleanReq_misses::.cpu.inst         1319                       # number of ReadCleanReq misses
system.l2.ReadCleanReq_misses::total             1319                       # number of ReadCleanReq misses
system.l2.ReadCleanReq_miss_latency::.cpu.inst    129876000                       # number of ReadCleanReq miss cycles
system.l2.ReadCleanReq_miss_latency::total    129876000                       # number of ReadCleanReq miss cycles
system.l2.ReadCleanReq_accesses::.cpu.inst         1754                       # number of ReadCleanReq accesses(hits+misses)
system.l2.ReadCleanReq_accesses::total           1754                       # number of ReadCleanReq accesses(hits+misses)
system.l2.ReadCleanReq_miss_rate::.cpu.inst     0.751995                       # miss rate for ReadCleanReq accesses
system.l2.ReadCleanReq_miss_rate::total      0.751995                       # miss rate for ReadCleanReq accesses
system.l2.ReadCleanReq_avg_miss_latency::.cpu.inst 98465.504170                       # average ReadCleanReq miss latency
system.l2.ReadCleanReq_avg_miss_latency::total 98465.504170                       # average ReadCleanReq miss latency
system.l2.ReadCleanReq_mshr_hits::.cpu.inst            2                       # number of ReadCleanReq MSHR hits
system.l2.ReadCleanReq_mshr_hits::total             2                       # number of ReadCleanReq MSHR hits
system.l2.ReadCleanReq_mshr_misses::.cpu.inst         1317                       # number of ReadCleanReq MSHR misses
system.l2.ReadCleanReq_mshr_misses::total         1317                       # number of ReadCleanReq MSHR misses
system.l2.ReadCleanReq_mshr_miss_latency::.cpu.inst    103373000                       # number of ReadCleanReq MSHR miss cycles
system.l2.ReadCleanReq_mshr_miss_latency::total    103373000                       # number of ReadCleanReq MSHR miss cycles
system.l2.ReadCleanReq_mshr_miss_rate::.cpu.inst     0.750855                       # mshr miss rate for ReadCleanReq accesses
system.l2.ReadCleanReq_mshr_miss_rate::total     0.750855                       # mshr miss rate for ReadCleanReq accesses
system.l2.ReadCleanReq_avg_mshr_miss_latency::.cpu.inst 78491.268033                       # average ReadCleanReq mshr miss latency
system.l2.ReadCleanReq_avg_mshr_miss_latency::total 78491.268033                       # average ReadCleanReq mshr miss latency
system.l2.ReadSharedReq_hits::.cpu.data         11781                       # number of ReadSharedReq hits
system.l2.ReadSharedReq_hits::total             11781                       # number of ReadSharedReq hits
system.l2.ReadSharedReq_misses::.cpu.data          810                       # number of ReadSharedReq misses
system.l2.ReadSharedReq_misses::total             810                       # number of ReadSharedReq misses
system.l2.ReadSharedReq_miss_latency::.cpu.data     81743000                       # number of ReadSharedReq miss cycles
system.l2.ReadSharedReq_miss_latency::total     81743000                       # number of ReadSharedReq miss cycles
system.l2.ReadSharedReq_accesses::.cpu.data        12591                       # number of ReadSharedReq accesses(hits+misses)
system.l2.ReadSharedReq_accesses::total         12591                       # number of ReadSharedReq accesses(hits+misses)
system.l2.ReadSharedReq_miss_rate::.cpu.data     0.064332                       # miss rate for ReadSharedReq accesses
system.l2.ReadSharedReq_miss_rate::total     0.064332                       # miss rate for ReadSharedReq accesses
system.l2.ReadSharedReq_avg_miss_latency::.cpu.data 100917.283951                       # average ReadSharedReq miss latency
system.l2.ReadSharedReq_avg_miss_latency::total 100917.283951                       # average ReadSharedReq miss latency
system.l2.ReadSharedReq_mshr_hits::.cpu.data            8                       # number of ReadSharedReq MSHR hits
system.l2.ReadSharedReq_mshr_hits::total            8                       # number of ReadSharedReq MSHR hits
system.l2.ReadSharedReq_mshr_misses::.cpu.data          802                       # number of ReadSharedReq MSHR misses
system.l2.ReadSharedReq_mshr_misses::total          802                       # number of ReadSharedReq MSHR misses
system.l2.ReadSharedReq_mshr_miss_latency::.cpu.data     65091000                       # number of ReadSharedReq MSHR miss cycles
system.l2.ReadSharedReq_mshr_miss_latency::total     65091000                       # number of ReadSharedReq MSHR miss cycles
system.l2.ReadSharedReq_mshr_miss_rate::.cpu.data     0.063696                       # mshr miss rate for ReadSharedReq accesses
system.l2.ReadSharedReq_mshr_miss_rate::total     0.063696                       # mshr miss rate for ReadSharedReq accesses
system.l2.ReadSharedReq_avg_mshr_miss_latency::.cpu.data 81160.847880                       # average ReadSharedReq mshr miss latency
system.l2.ReadSharedReq_avg_mshr_miss_latency::total 81160.847880                       # average ReadSharedReq mshr miss latency
system.l2.tags.pwrStateResidencyTicks::UNDEFINED 118408476000                       # Cumulative time (in ticks) in various power states
system.l2.tags.tagsinuse                  5578.158208                       # Cycle average of tags in use
system.l2.tags.total_refs                      131067                       # Total number of references to valid blocks.
system.l2.tags.sampled_refs                      5788                       # Sample count of references to valid blocks.
system.l2.tags.avg_refs                     22.644610                       # Average number of references to valid blocks.
system.l2.tags.warmup_cycle                     87000                       # Cycle when the warmup percentage was hit.
system.l2.tags.occ_blocks::.cpu.inst      1309.690257                       # Average occupied blocks per requestor
system.l2.tags.occ_blocks::.cpu.data      4268.467951                       # Average occupied blocks per requestor
system.l2.tags.occ_percent::.cpu.inst        0.039969                       # Average percentage of cache occupancy
system.l2.tags.occ_percent::.cpu.data        0.130263                       # Average percentage of cache occupancy
system.l2.tags.occ_percent::total            0.170232                       # Average percentage of cache occupancy
system.l2.tags.occ_task_id_blocks::1024          5788                       # Occupied blocks per task id
system.l2.tags.age_task_id_blocks_1024::3            1                       # Occupied blocks per task id
system.l2.tags.age_task_id_blocks_1024::4         5787                       # Occupied blocks per task id
system.l2.tags.occ_task_id_percent::1024     0.176636                       # Percentage of cache occupancy per task id
system.l2.tags.tag_accesses                   2103020                       # Number of tag accesses
system.l2.tags.data_accesses                  2103020                       # Number of data accesses
system.cpu_voltage_domain.voltage                   1                       # Voltage in Volts
system.mem_ctrls.pwrStateResidencyTicks::UNDEFINED 118408476000                       # Cumulative time (in ticks) in various power states
system.mem_ctrls.bytes_read::.cpu.inst          84288                       # Number of bytes read from this memory
system.mem_ctrls.bytes_read::.cpu.data         286144                       # Number of bytes read from this memory
system.mem_ctrls.bytes_read::total             370432                       # Number of bytes read from this memory
system.mem_ctrls.bytes_inst_read::.cpu.inst        84288                       # Number of instructions bytes read from this memory
system.mem_ctrls.bytes_inst_read::total         84288                       # Number of instructions bytes read from this memory
system.mem_ctrls.num_reads::.cpu.inst            1317                       # Number of read requests responded to by this memory
system.mem_ctrls.num_reads::.cpu.data            4471                       # Number of read requests responded to by this memory
system.mem_ctrls.num_reads::total                5788                       # Number of read requests responded to by this memory
system.mem_ctrls.bw_read::.cpu.inst            711841                       # Total read bandwidth from this memory (bytes/s)
system.mem_ctrls.bw_read::.cpu.data           2416584                       # Total read bandwidth from this memory (bytes/s)
system.mem_ctrls.bw_read::total               3128425                       # Total read bandwidth from this memory (bytes/s)
system.mem_ctrls.bw_inst_read::.cpu.inst       711841                       # Instruction read bandwidth from this memory (bytes/s)
system.mem_ctrls.bw_inst_read::total           711841                       # Instruction read bandwidth from this memory (bytes/s)
system.mem_ctrls.bw_total::.cpu.inst           711841                       # Total bandwidth to/from this memory (bytes/s)
system.mem_ctrls.bw_total::.cpu.data          2416584                       # Total bandwidth to/from this memory (bytes/s)
system.mem_ctrls.bw_total::total              3128425                       # Total bandwidth to/from this memory (bytes/s)
system.mem_ctrls.avgPriority_.cpu.inst::samples      1317.00                       # Average QoS priority value for accepted requests
system.mem_ctrls.avgPriority_.cpu.data::samples      4471.00                       # Average QoS priority value for accepted requests
system.mem_ctrls.priorityMinLatency      0.000000018750                       # per QoS priority minimum request to response latency (s)
system.mem_ctrls.priorityMaxLatency      0.000000577500                       # per QoS priority maximum request to response latency (s)
system.mem_ctrls.numReadWriteTurnArounds            0                       # Number of turnarounds from READ to WRITE
system.mem_ctrls.numWriteReadTurnArounds            0                       # Number of turnarounds from WRITE to READ
system.mem_ctrls.numStayReadState               41984                       # Number of times bus staying in READ state
system.mem_ctrls.numStayWriteState                  0                       # Number of times bus staying in WRITE state
system.mem_ctrls.readReqs                        5788                       # Number of read requests accepted
system.mem_ctrls.writeReqs                          0                       # Number of write requests accepted
system.mem_ctrls.readBursts                      5788                       # Number of DRAM read bursts, including those serviced by the write queue
system.mem_ctrls.writeBursts                        0                       # Number of DRAM write bursts, including those merged in the write queue
system.mem_ctrls.servicedByWrQ                      0                       # Number of DRAM read bursts serviced by the write queue
system.mem_ctrls.mergedWrBursts                     0                       # Number of DRAM write bursts merged with an existing one
system.mem_ctrls.neitherReadNorWriteReqs            0                       # Number of requests that are neither read nor write
system.mem_ctrls.perBankRdBursts::0               361                       # Per bank write bursts
system.mem_ctrls.perBankRdBursts::1               321                       # Per bank write bursts
system.mem_ctrls.perBankRdBursts::2               341                       # Per bank write bursts
system.mem_ctrls.perBankRdBursts::3               324                       # Per bank write bursts
system.mem_ctrls.perBankRdBursts::4               322                       # Per bank write bursts
system.mem_ctrls.perBankRdBursts::5               539                       # Per bank write bursts
system.mem_ctrls.perBankRdBursts::6               361                       # Per bank write bursts
system.mem_ctrls.perBankRdBursts::7               447                       # Per bank write bursts
system.mem_ctrls.perBankRdBursts::8               277                       # Per bank write bursts
system.mem_ctrls.perBankRdBursts::9               340                       # Per bank write bursts
system.mem_ctrls.perBankRdBursts::10              395                       # Per bank write bursts
system.mem_ctrls.perBankRdBursts::11              385                       # Per bank write bursts
system.mem_ctrls.perBankRdBursts::12              419                       # Per bank write bursts
system.mem_ctrls.perBankRdBursts::13              349                       # Per bank write bursts
system.mem_ctrls.perBankRdBursts::14              308                       # Per bank write bursts
system.mem_ctrls.perBankRdBursts::15              299                       # Per bank write bursts
system.mem_ctrls.perBankWrBursts::0                 0                       # Per bank write bursts
system.mem_ctrls.perBankWrBursts::1                 0                       # Per bank write bursts
system.mem_ctrls.perBankWrBursts::2                 0                       # Per bank write bursts
system.mem_ctrls.perBankWrBursts::3                 0                       # Per bank write bursts
system.mem_ctrls.perBankWrBursts::4                 0                       # Per bank write bursts
system.mem_ctrls.perBankWrBursts::5                 0                       # Per bank write bursts
system.mem_ctrls.perBankWrBursts::6                 0                       # Per bank write bursts
system.mem_ctrls.perBankWrBursts::7                 0                       # Per bank write bursts
system.mem_ctrls.perBankWrBursts::8                 0                       # Per bank write bursts
system.mem_ctrls.perBankWrBursts::9                 0                       # Per bank write bursts
system.mem_ctrls.perBankWrBursts::10                0                       # Per bank write bursts
system.mem_ctrls.perBankWrBursts::11                0                       # Per bank write bursts
system.mem_ctrls.perBankWrBursts::12                0                       # Per bank write bursts
system.mem_ctrls.perBankWrBursts::13                0                       # Per bank write bursts
system.mem_ctrls.perBankWrBursts::14                0                       # Per bank write bursts
system.mem_ctrls.perBankWrBursts::15                0                       # Per bank write bursts
system.mem_ctrls.avgRdQLen                       1.01                       # Average read queue length when enqueuing
system.mem_ctrls.avgWrQLen                       0.00                       # Average write queue length when enqueuing
system.mem_ctrls.totQLat                     54531750                       # Total ticks spent queuing
system.mem_ctrls.totBusLat                   28940000                       # Total ticks spent in databus transfers
system.mem_ctrls.totMemAccLat               163056750                       # Total ticks spent from burst creation until serviced by the DRAM
system.mem_ctrls.avgQLat                      9421.52                       # Average queueing delay per DRAM burst
system.mem_ctrls.avgBusLat                    5000.00                       # Average bus latency per DRAM burst
system.mem_ctrls.avgMemAccLat                28171.52                       # Average memory access latency per DRAM burst
system.mem_ctrls.numRdRetry                         0                       # Number of times read queue was full causing retry
system.mem_ctrls.numWrRetry                         0                       # Number of times write queue was full causing retry
system.mem_ctrls.readRowHits                     3886                       # Number of row buffer hits during reads
system.mem_ctrls.writeRowHits                       0                       # Number of row buffer hits during writes
system.mem_ctrls.readRowHitRate                 67.14                       # Row buffer hit rate for reads
system.mem_ctrls.writeRowHitRate                  nan                       # Row buffer hit rate for writes
system.mem_ctrls.readPktSize::0                     0                       # Read request sizes (log2)
system.mem_ctrls.readPktSize::1                     0                       # Read request sizes (log2)
system.mem_ctrls.readPktSize::2                     0                       # Read request sizes (log2)
system.mem_ctrls.readPktSize::3                     0                       # Read request sizes (log2)
system.mem_ctrls.readPktSize::4                     0                       # Read request sizes (log2)
system.mem_ctrls.readPktSize::5                     0                       # Read request sizes (log2)
system.mem_ctrls.readPktSize::6                  5788                       # Read request sizes (log2)
system.mem_ctrls.writePktSize::0                    0                       # Write request sizes (log2)
system.mem_ctrls.writePktSize::1                    0                       # Write request sizes (log2)
system.mem_ctrls.writePktSize::2                    0                       # Write request sizes (log2)
system.mem_ctrls.writePktSize::3                    0                       # Write request sizes (log2)
system.mem_ctrls.writePktSize::4                    0                       # Write request sizes (log2)
system.mem_ctrls.writePktSize::5                    0                       # Write request sizes (log2)
system.mem_ctrls.writePktSize::6                    0                       # Write request sizes (log2)
system.mem_ctrls.rdQLenPdf::0                    5383                       # What read queue length does an incoming req see
system.mem_ctrls.rdQLenPdf::1                     390                       # What read queue length does an incoming req see
system.mem_ctrls.rdQLenPdf::2                      15                       # What read queue length does an incoming req see
system.mem_ctrls.rdQLenPdf::3                       0                       # What read queue length does an incoming req see
system.mem_ctrls.rdQLenPdf::4                       0                       # What read queue length does an incoming req see
system.mem_ctrls.rdQLenPdf::5                       0                       # What read queue length does an incoming req see
system.mem_ctrls.rdQLenPdf::6                       0                       # What read queue length does an incoming req see
system.mem_ctrls.rdQLenPdf::7                       0                       # What read queue length does an incoming req see
system.mem_ctrls.rdQLenPdf::8                       0                       # What read queue length does an incoming req see
system.mem_ctrls.rdQLenPdf::9                       0                       # What read queue length does an incoming req see
system.mem_ctrls.rdQLenPdf::10                      0                       # What read queue length does an incoming req see
system.mem_ctrls.rdQLenPdf::11                      0                       # What read queue length does an incoming req see
system.mem_ctrls.rdQLenPdf::12                      0                       # What read queue length does an incoming req see
system.mem_ctrls.rdQLenPdf::13                      0                       # What read queue length does an incoming req see
system.mem_ctrls.rdQLenPdf::14                      0                       # What read queue length does an incoming req see
system.mem_ctrls.rdQLenPdf::15                      0                       # What read queue length does an incoming req see
system.mem_ctrls.rdQLenPdf::16                      0                       # What read queue length does an incoming req see
system.mem_ctrls.rdQLenPdf::17                      0                       # What read queue length does an incoming req see
system.mem_ctrls.rdQLenPdf::18                      0                       # What read queue length does an incoming req see
system.mem_ctrls.rdQLenPdf::19                      0                       # What read queue length does an incoming req see
system.mem_ctrls.rdQLenPdf::20                      0                       # What read queue length does an incoming req see
system.mem_ctrls.rdQLenPdf::21                      0                       # What read queue length does an incoming req see
system.mem_ctrls.rdQLenPdf::22                      0                       # What read queue length does an incoming req see
system.mem_ctrls.rdQLenPdf::23                      0                       # What read queue length does an incoming req see
system.mem_ctrls.rdQLenPdf::24                      0                       # What read queue length does an incoming req see
system.mem_ctrls.rdQLenPdf::25                      0                       # What read queue length does an incoming req see
system.mem_ctrls.rdQLenPdf::26                      0                       # What read queue length does an incoming req see
system.mem_ctrls.rdQLenPdf::27                      0                       # What read queue length does an incoming req see
system.mem_ctrls.rdQLenPdf::28                      0                       # What read queue length does an incoming req see
system.mem_ctrls.rdQLenPdf::29                      0                       # What read queue length does an incoming req see
system.mem_ctrls.rdQLenPdf::30                      0                       # What read queue length does an incoming req see
system.mem_ctrls.rdQLenPdf::31                      0                       # What read queue length does an incoming req see
system.mem_ctrls.wrQLenPdf::0                       0                       # What write queue length does an incoming req see
system.mem_ctrls.wrQLenPdf::1                       0                       # What write queue length does an incoming req see
system.mem_ctrls.wrQLenPdf::2                       0                       # What write queue length does an incoming req see
system.mem_ctrls.wrQLenPdf::3                       0                       # What write queue length does an incoming req see
system.mem_ctrls.wrQLenPdf::4                       0                       # What write queue length does an incoming req see
system.mem_ctrls.wrQLenPdf::5                       0                       # What write queue length does an incoming req see
system.mem_ctrls.wrQLenPdf::6                       0                       # What write queue length does an incoming req see
system.mem_ctrls.wrQLenPdf::7                       0                       # What write queue length does an incoming req see
system.mem_ctrls.wrQLenPdf::8                       0                       # What write queue length does an incoming req see
system.mem_ctrls.wrQLenPdf::9                       0                       # What write queue length does an incoming req see
system.mem_ctrls.wrQLenPdf::10                      0                       # What write queue length does an incoming req see
system.mem_ctrls.wrQLenPdf::11                      0                       # What write queue length does an incoming req see
system.mem_ctrls.wrQLenPdf::12                      0                       # What write queue length does an incoming req see
system.mem_ctrls.wrQLenPdf::13                      0                       # What write queue length does an incoming req see
system.mem_ctrls.wrQLenPdf::14                      0                       # What write queue length does an incoming req see
system.mem_ctrls.wrQLenPdf::15                      0                       # What write queue length does an incoming req see
system.mem_ctrls.wrQLenPdf::16                      0                       # What write queue length does an incoming req see
system.mem_ctrls.wrQLenPdf::17                      0                       # What write queue length does an incoming req see
system.mem_ctrls.wrQLenPdf::18                      0                       # What write queue length does an incoming req see
system.mem_ctrls.wrQLenPdf::19                      0                       # What write queue length does an incoming req see
system.mem_ctrls.wrQLenPdf::20                      0                       # What write queue length does an incoming req see
system.mem_ctrls.wrQLenPdf::21                      0                       # What write queue length does an incoming req see
system.mem_ctrls.wrQLenPdf::22                      0                       # What write queue length does an incoming req see
system.mem_ctrls.wrQLenPdf::23                      0                       # What write queue length does an incoming req see
system.mem_ctrls.wrQLenPdf::24                      0                       # What write queue length does an incoming req see
system.mem_ctrls.wrQLenPdf::25                      0                       # What write queue length does an incoming req see
system.mem_ctrls.wrQLenPdf::26                      0                       # What write queue length does an incoming req see
system.mem_ctrls.wrQLenPdf::27                      0                       # What write queue length does an incoming req see
system.mem_ctrls.wrQLenPdf::28                      0                       # What write queue length does an incoming req see
system.mem_ctrls.wrQLenPdf::29                      0                       # What write queue length does an incoming req see
system.mem_ctrls.wrQLenPdf::30                      0                       # What write queue length does an incoming req see
system.mem_ctrls.wrQLenPdf::31                      0                       # What write queue length does an incoming req see
system.mem_ctrls.wrQLenPdf::32                      0                       # What write queue length does an incoming req see
system.mem_ctrls.wrQLenPdf::33                      0                       # What write queue length does an incoming req see
system.mem_ctrls.wrQLenPdf::34                      0                       # What write queue length does an incoming req see
system.mem_ctrls.wrQLenPdf::35                      0                       # What write queue length does an incoming req see
system.mem_ctrls.wrQLenPdf::36                      0                       # What write queue length does an incoming req see
system.mem_ctrls.wrQLenPdf::37                      0                       # What write queue length does an incoming req see
system.mem_ctrls.wrQLenPdf::38                      0                       # What write queue length does an incoming req see
system.mem_ctrls.wrQLenPdf::39                      0                       # What write queue length does an incoming req see
system.mem_ctrls.wrQLenPdf::40                      0                       # What write queue length does an incoming req see
system.mem_ctrls.wrQLenPdf::41                      0                       # What write queue length does an incoming req see
system.mem_ctrls.wrQLenPdf::42                      0                       # What write queue length does an incoming req see
system.mem_ctrls.wrQLenPdf::43                      0                       # What write queue length does an incoming req see
system.mem_ctrls.wrQLenPdf::44                      0                       # What write queue length does an incoming req see
system.mem_ctrls.wrQLenPdf::45                      0                       # What write queue length does an incoming req see
system.mem_ctrls.wrQLenPdf::46                      0                       # What write queue length does an incoming req see
system.mem_ctrls.wrQLenPdf::47                      0                       # What write queue length does an incoming req see
system.mem_ctrls.wrQLenPdf::48                      0                       # What write queue length does an incoming req see
system.mem_ctrls.wrQLenPdf::49                      0                       # What write queue length does an incoming req see
system.mem_ctrls.wrQLenPdf::50                      0                       # What write queue length does an incoming req see
system.mem_ctrls.wrQLenPdf::51                      0                       # What write queue length does an incoming req see
system.mem_ctrls.wrQLenPdf::52                      0                       # What write queue length does an incoming req see
system.mem_ctrls.wrQLenPdf::53                      0                       # What write queue length does an incoming req see
system.mem_ctrls.wrQLenPdf::54                      0                       # What write queue length does an incoming req see
system.mem_ctrls.wrQLenPdf::55                      0                       # What write queue length does an incoming req see
system.mem_ctrls.wrQLenPdf::56                      0                       # What write queue length does an incoming req see
system.mem_ctrls.wrQLenPdf::57                      0                       # What write queue length does an incoming req see
system.mem_ctrls.wrQLenPdf::58                      0                       # What write queue length does an incoming req see
system.mem_ctrls.wrQLenPdf::59                      0                       # What write queue length does an incoming req see
system.mem_ctrls.wrQLenPdf::60                      0                       # What write queue length does an incoming req see
system.mem_ctrls.wrQLenPdf::61                      0                       # What write queue length does an incoming req see
system.mem_ctrls.wrQLenPdf::62                      0                       # What write queue length does an incoming req see
system.mem_ctrls.wrQLenPdf::63                      0                       # What write queue length does an incoming req see
system.mem_ctrls.bytesPerActivate::samples         1902                       # Bytes accessed per row activation
system.mem_ctrls.bytesPerActivate::mean    194.759201                       # Bytes accessed per row activation
system.mem_ctrls.bytesPerActivate::gmean   126.190314                       # Bytes accessed per row activation
system.mem_ctrls.bytesPerActivate::stdev   247.772969                       # Bytes accessed per row activation
system.mem_ctrls.bytesPerActivate::0-127          814     42.80%     42.80% # Bytes accessed per row activation
system.mem_ctrls.bytesPerActivate::128-255          738     38.80%     81.60% # Bytes accessed per row activation
system.mem_ctrls.bytesPerActivate::256-383          119      6.26%     87.85% # Bytes accessed per row activation
system.mem_ctrls.bytesPerActivate::384-511           35      1.84%     89.70% # Bytes accessed per row activation
system.mem_ctrls.bytesPerActivate::512-639           34      1.79%     91.48% # Bytes accessed per row activation
system.mem_ctrls.bytesPerActivate::640-767           24      1.26%     92.74% # Bytes accessed per row activation
system.mem_ctrls.bytesPerActivate::768-895           14      0.74%     93.48% # Bytes accessed per row activation
system.mem_ctrls.bytesPerActivate::896-1023           16      0.84%     94.32% # Bytes accessed per row activation
system.mem_ctrls.bytesPerActivate::1024-1151          108      5.68%    100.00% # Bytes accessed per row activation
system.mem_ctrls.bytesPerActivate::total         1902                       # Bytes accessed per row activation
system.mem_ctrls.bytesReadDRAM                 370432                       # Total number of bytes read from DRAM
system.mem_ctrls.bytesReadWrQ                       0                       # Total number of bytes read from write queue
system.mem_ctrls.bytesWritten                       0                       # Total number of bytes written to DRAM
system.mem_ctrls.bytesReadSys                  370432                       # Total read bytes from the system interface side
system.mem_ctrls.bytesWrittenSys                    0                       # Total written bytes from the system interface side
system.mem_ctrls.avgRdBW                         3.13                       # Average DRAM read bandwidth in MiByte/s
system.mem_ctrls.avgWrBW                         0.00                       # Average achieved write bandwidth in MiByte/s
system.mem_ctrls.avgRdBWSys                      3.13                       # Average system read bandwidth in MiByte/s
system.mem_ctrls.avgWrBWSys                      0.00                       # Average system write bandwidth in MiByte/s
system.mem_ctrls.peakBW                      12800.00                       # Theoretical peak bandwidth in MiByte/s
system.mem_ctrls.busUtil                         0.02                       # Data bus utilization in percentage
system.mem_ctrls.busUtilRead                     0.02                       # Data bus utilization in percentage for reads
system.mem_ctrls.busUtilWrite                    0.00                       # Data bus utilization in percentage for writes
system.mem_ctrls.totGap                  111915775000                       # Total gap between requests
system.mem_ctrls.avgGap                   19335828.44                       # Average gap between requests
system.mem_ctrls.masterReadBytes::.cpu.inst        84288                       # Per-master bytes read from memory
system.mem_ctrls.masterReadBytes::.cpu.data       286144                       # Per-master bytes read from memory
system.mem_ctrls.masterReadRate::.cpu.inst 711840.932738632662                       # Per-master bytes read from memory rate (Bytes/sec)
system.mem_ctrls.masterReadRate::.cpu.data 2416583.758750513662                       # Per-master bytes read from memory rate (Bytes/sec)
system.mem_ctrls.masterReadAccesses::.cpu.inst         1317                       # Per-master read serviced memory accesses
system.mem_ctrls.masterReadAccesses::.cpu.data         4471                       # Per-master read serviced memory accesses
system.mem_ctrls.masterReadTotalLat::.cpu.inst     35786000                       # Per-master read total memory access latency
system.mem_ctrls.masterReadTotalLat::.cpu.data    127270750                       # Per-master read total memory access latency
system.mem_ctrls.masterReadAvgLat::.cpu.inst     27172.36                       # Per-master read average memory access latency
system.mem_ctrls.masterReadAvgLat::.cpu.data     28465.84                       # Per-master read average memory access latency
system.mem_ctrls.pageHitRate                    67.14                       # Row buffer hit rate, read and write combined
[...]
system.cpu.icache.tags.occ_task_id_blocks::1024          512                       # Occupied blocks per task id
system.cpu.icache.tags.age_task_id_blocks_1024::3            1                       # Occupied blocks per task id
system.cpu.icache.tags.age_task_id_blocks_1024::4          511                       # Occupied blocks per task id
system.cpu.icache.tags.occ_task_id_percent::1024            1                       # Percentage of cache occupancy per task id
system.cpu.icache.tags.tag_accesses          68575166                       # Number of tag accesses
system.cpu.icache.tags.data_accesses         68575166                       # Number of data accesses
system.cpu.dtb.walker.pwrStateResidencyTicks::UNDEFINED 118408476000                       # Cumulative time (in ticks) in various power states
system.cpu.dtb.stage2_mmu.stage2_tlb.walker.pwrStateResidencyTicks::UNDEFINED 118408476000                       # Cumulative time (in ticks) in various power states
system.cpu.dcache.pwrStateResidencyTicks::UNDEFINED 118408476000                       # Cumulative time (in ticks) in various power states
system.cpu.dcache.demand_hits::.cpu.data     43788486                       # number of demand (read+write) hits
system.cpu.dcache.demand_hits::total         43788486                       # number of demand (read+write) hits
system.cpu.dcache.overall_hits::.cpu.data     43797033                       # number of overall hits
system.cpu.dcache.overall_hits::total        43797033                       # number of overall hits
system.cpu.dcache.demand_misses::.cpu.data        69713                       # number of demand (read+write) misses
system.cpu.dcache.demand_misses::total          69713                       # number of demand (read+write) misses
system.cpu.dcache.overall_misses::.cpu.data        69860                       # number of overall misses
system.cpu.dcache.overall_misses::total         69860                       # number of overall misses
system.cpu.dcache.demand_miss_latency::.cpu.data   2304770000                       # number of demand (read+write) miss cycles
system.cpu.dcache.demand_miss_latency::total   2304770000                       # number of demand (read+write) miss cycles
system.cpu.dcache.overall_miss_latency::.cpu.data   2304770000                       # number of overall miss cycles
system.cpu.dcache.overall_miss_latency::total   2304770000                       # number of overall miss cycles
system.cpu.dcache.demand_accesses::.cpu.data     43858199                       # number of demand (read+write) accesses
system.cpu.dcache.demand_accesses::total     43858199                       # number of demand (read+write) accesses
system.cpu.dcache.overall_accesses::.cpu.data     43866893                       # number of overall (read+write) accesses
system.cpu.dcache.overall_accesses::total     43866893                       # number of overall (read+write) accesses
system.cpu.dcache.demand_miss_rate::.cpu.data     0.001590                       # miss rate for demand accesses
system.cpu.dcache.demand_miss_rate::total     0.001590                       # miss rate for demand accesses
system.cpu.dcache.overall_miss_rate::.cpu.data     0.001593                       # miss rate for overall accesses
system.cpu.dcache.overall_miss_rate::total     0.001593                       # miss rate for overall accesses
system.cpu.dcache.demand_avg_miss_latency::.cpu.data 33060.835138                       # average overall miss latency
system.cpu.dcache.demand_avg_miss_latency::total 33060.835138                       # average overall miss latency
system.cpu.dcache.overall_avg_miss_latency::.cpu.data 32991.268251                       # average overall miss latency
system.cpu.dcache.overall_avg_miss_latency::total 32991.268251                       # average overall miss latency
system.cpu.dcache.blocked_cycles::no_mshrs           62                       # number of cycles access was blocked
system.cpu.dcache.blocked_cycles::no_targets            0                       # number of cycles access was blocked
system.cpu.dcache.blocked::no_mshrs                 1                       # number of cycles access was blocked
system.cpu.dcache.blocked::no_targets               0                       # number of cycles access was blocked
system.cpu.dcache.avg_blocked_cycles::no_mshrs           62                       # average number of cycles each access was blocked
system.cpu.dcache.avg_blocked_cycles::no_targets          nan                       # average number of cycles each access was blocked
system.cpu.dcache.writebacks::.writebacks        61742                       # number of writebacks
system.cpu.dcache.writebacks::total             61742                       # number of writebacks
system.cpu.dcache.demand_mshr_hits::.cpu.data         4881                       # number of demand (read+write) MSHR hits
system.cpu.dcache.demand_mshr_hits::total         4881                       # number of demand (read+write) MSHR hits
system.cpu.dcache.overall_mshr_hits::.cpu.data         4881                       # number of overall MSHR hits
system.cpu.dcache.overall_mshr_hits::total         4881                       # number of overall MSHR hits
system.cpu.dcache.demand_mshr_misses::.cpu.data        64832                       # number of demand (read+write) MSHR misses
system.cpu.dcache.demand_mshr_misses::total        64832                       # number of demand (read+write) MSHR misses
system.cpu.dcache.overall_mshr_misses::.cpu.data        64966                       # number of overall MSHR misses
system.cpu.dcache.overall_mshr_misses::total        64966                       # number of overall MSHR misses
system.cpu.dcache.demand_mshr_miss_latency::.cpu.data   1903399000                       # number of demand (read+write) MSHR miss cycles
system.cpu.dcache.demand_mshr_miss_latency::total   1903399000                       # number of demand (read+write) MSHR miss cycles
system.cpu.dcache.overall_mshr_miss_latency::.cpu.data   1913781000                       # number of overall MSHR miss cycles
system.cpu.dcache.overall_mshr_miss_latency::total   1913781000                       # number of overall MSHR miss cycles
system.cpu.dcache.demand_mshr_miss_rate::.cpu.data     0.001478                       # mshr miss rate for demand accesses
system.cpu.dcache.demand_mshr_miss_rate::total     0.001478                       # mshr miss rate for demand accesses
system.cpu.dcache.overall_mshr_miss_rate::.cpu.data     0.001481                       # mshr miss rate for overall accesses
system.cpu.dcache.overall_mshr_miss_rate::total     0.001481                       # mshr miss rate for overall accesses
system.cpu.dcache.demand_avg_mshr_miss_latency::.cpu.data 29358.943115                       # average overall mshr miss latency
system.cpu.dcache.demand_avg_mshr_miss_latency::total 29358.943115                       # average overall mshr miss latency
system.cpu.dcache.overall_avg_mshr_miss_latency::.cpu.data 29458.193517                       # average overall mshr miss latency
system.cpu.dcache.overall_avg_mshr_miss_latency::total 29458.193517                       # average overall mshr miss latency
system.cpu.dcache.replacements                  63943                       # number of replacements
system.cpu.dcache.ReadReq_hits::.cpu.data     37520664                       # number of ReadReq hits
system.cpu.dcache.ReadReq_hits::total        37520664                       # number of ReadReq hits
system.cpu.dcache.ReadReq_misses::.cpu.data        12641                       # number of ReadReq misses
system.cpu.dcache.ReadReq_misses::total         12641                       # number of ReadReq misses
system.cpu.dcache.ReadReq_miss_latency::.cpu.data    394180000                       # number of ReadReq miss cycles
system.cpu.dcache.ReadReq_miss_latency::total    394180000                       # number of ReadReq miss cycles
system.cpu.dcache.ReadReq_accesses::.cpu.data     37533305                       # number of ReadReq accesses(hits+misses)
system.cpu.dcache.ReadReq_accesses::total     37533305                       # number of ReadReq accesses(hits+misses)
system.cpu.dcache.ReadReq_miss_rate::.cpu.data     0.000337                       # miss rate for ReadReq accesses
system.cpu.dcache.ReadReq_miss_rate::total     0.000337                       # miss rate for ReadReq accesses
system.cpu.dcache.ReadReq_avg_miss_latency::.cpu.data 31182.659600                       # average ReadReq miss latency
system.cpu.dcache.ReadReq_avg_miss_latency::total 31182.659600                       # average ReadReq miss latency
system.cpu.dcache.ReadReq_mshr_hits::.cpu.data          185                       # number of ReadReq MSHR hits
system.cpu.dcache.ReadReq_mshr_hits::total          185                       # number of ReadReq MSHR hits
system.cpu.dcache.ReadReq_mshr_misses::.cpu.data        12456                       # number of ReadReq MSHR misses
system.cpu.dcache.ReadReq_mshr_misses::total        12456                       # number of ReadReq MSHR misses
system.cpu.dcache.ReadReq_mshr_miss_latency::.cpu.data    358236000                       # number of ReadReq MSHR miss cycles
system.cpu.dcache.ReadReq_mshr_miss_latency::total    358236000                       # number of ReadReq MSHR miss cycles
system.cpu.dcache.ReadReq_mshr_miss_rate::.cpu.data     0.000332                       # mshr miss rate for ReadReq accesses
system.cpu.dcache.ReadReq_mshr_miss_rate::total     0.000332                       # mshr miss rate for ReadReq accesses
system.cpu.dcache.ReadReq_avg_mshr_miss_latency::.cpu.data 28760.115607                       # average ReadReq mshr miss latency
system.cpu.dcache.ReadReq_avg_mshr_miss_latency::total 28760.115607                       # average ReadReq mshr miss latency
system.cpu.dcache.WriteReq_hits::.cpu.data      6267822                       # number of WriteReq hits
system.cpu.dcache.WriteReq_hits::total        6267822                       # number of WriteReq hits
system.cpu.dcache.WriteReq_misses::.cpu.data        57072                       # number of WriteReq misses
system.cpu.dcache.WriteReq_misses::total        57072                       # number of WriteReq misses
system.cpu.dcache.WriteReq_miss_latency::.cpu.data   1910590000                       # number of WriteReq miss cycles
system.cpu.dcache.WriteReq_miss_latency::total   1910590000                       # number of WriteReq miss cycles
system.cpu.dcache.WriteReq_accesses::.cpu.data      6324894                       # number of WriteReq accesses(hits+misses)
system.cpu.dcache.WriteReq_accesses::total      6324894                       # number of WriteReq accesses(hits+misses)
system.cpu.dcache.WriteReq_miss_rate::.cpu.data     0.009023                       # miss rate for WriteReq accesses
system.cpu.dcache.WriteReq_miss_rate::total     0.009023                       # miss rate for WriteReq accesses
system.cpu.dcache.WriteReq_avg_miss_latency::.cpu.data 33476.836277                       # average WriteReq miss latency
system.cpu.dcache.WriteReq_avg_miss_latency::total 33476.836277                       # average WriteReq miss latency
system.cpu.dcache.WriteReq_mshr_hits::.cpu.data         4696                       # number of WriteReq MSHR hits
system.cpu.dcache.WriteReq_mshr_hits::total         4696                       # number of WriteReq MSHR hits
system.cpu.dcache.WriteReq_mshr_misses::.cpu.data        52376                       # number of WriteReq MSHR misses
system.cpu.dcache.WriteReq_mshr_misses::total        52376                       # number of WriteReq MSHR misses
system.cpu.dcache.WriteReq_mshr_miss_latency::.cpu.data   1545163000                       # number of WriteReq MSHR miss cycles
system.cpu.dcache.WriteReq_mshr_miss_latency::total   1545163000                       # number of WriteReq MSHR miss cycles
system.cpu.dcache.WriteReq_mshr_miss_rate::.cpu.data     0.008281                       # mshr miss rate for WriteReq accesses
system.cpu.dcache.WriteReq_mshr_miss_rate::total     0.008281                       # mshr miss rate for WriteReq accesses
system.cpu.dcache.WriteReq_avg_mshr_miss_latency::.cpu.data 29501.355583                       # average WriteReq mshr miss latency
system.cpu.dcache.WriteReq_avg_mshr_miss_latency::total 29501.355583                       # average WriteReq mshr miss latency
system.cpu.dcache.SoftPFReq_hits::.cpu.data         8547                       # number of SoftPFReq hits
system.cpu.dcache.SoftPFReq_hits::total          8547                       # number of SoftPFReq hits
system.cpu.dcache.SoftPFReq_misses::.cpu.data          147                       # number of SoftPFReq misses
system.cpu.dcache.SoftPFReq_misses::total          147                       # number of SoftPFReq misses
system.cpu.dcache.SoftPFReq_accesses::.cpu.data         8694                       # number of SoftPFReq accesses(hits+misses)
system.cpu.dcache.SoftPFReq_accesses::total         8694                       # number of SoftPFReq accesses(hits+misses)
system.cpu.dcache.SoftPFReq_miss_rate::.cpu.data     0.016908                       # miss rate for SoftPFReq accesses
system.cpu.dcache.SoftPFReq_miss_rate::total     0.016908                       # miss rate for SoftPFReq accesses
system.cpu.dcache.SoftPFReq_mshr_misses::.cpu.data          134                       # number of SoftPFReq MSHR misses
system.cpu.dcache.SoftPFReq_mshr_misses::total          134                       # number of SoftPFReq MSHR misses
system.cpu.dcache.SoftPFReq_mshr_miss_latency::.cpu.data     10382000                       # number of SoftPFReq MSHR miss cycles
system.cpu.dcache.SoftPFReq_mshr_miss_latency::total     10382000                       # number of SoftPFReq MSHR miss cycles
system.cpu.dcache.SoftPFReq_mshr_miss_rate::.cpu.data     0.015413                       # mshr miss rate for SoftPFReq accesses
system.cpu.dcache.SoftPFReq_mshr_miss_rate::total     0.015413                       # mshr miss rate for SoftPFReq accesses
system.cpu.dcache.SoftPFReq_avg_mshr_miss_latency::.cpu.data 77477.611940                       # average SoftPFReq mshr miss latency
system.cpu.dcache.SoftPFReq_avg_mshr_miss_latency::total 77477.611940                       # average SoftPFReq mshr miss latency
system.cpu.dcache.LoadLockedReq_hits::.cpu.data          165                       # number of LoadLockedReq hits
system.cpu.dcache.LoadLockedReq_hits::total          165                       # number of LoadLockedReq hits
system.cpu.dcache.LoadLockedReq_misses::.cpu.data            1                       # number of LoadLockedReq misses
system.cpu.dcache.LoadLockedReq_misses::total            1                       # number of LoadLockedReq misses
system.cpu.dcache.LoadLockedReq_miss_latency::.cpu.data        95000                       # number of LoadLockedReq miss cycles
system.cpu.dcache.LoadLockedReq_miss_latency::total        95000                       # number of LoadLockedReq miss cycles
system.cpu.dcache.LoadLockedReq_accesses::.cpu.data          166                       # number of LoadLockedReq accesses(hits+misses)
system.cpu.dcache.LoadLockedReq_accesses::total          166                       # number of LoadLockedReq accesses(hits+misses)
system.cpu.dcache.LoadLockedReq_miss_rate::.cpu.data     0.006024                       # miss rate for LoadLockedReq accesses
system.cpu.dcache.LoadLockedReq_miss_rate::total     0.006024                       # miss rate for LoadLockedReq accesses
system.cpu.dcache.LoadLockedReq_avg_miss_latency::.cpu.data        95000                       # average LoadLockedReq miss latency
system.cpu.dcache.LoadLockedReq_avg_miss_latency::total        95000                       # average LoadLockedReq miss latency
system.cpu.dcache.LoadLockedReq_mshr_misses::.cpu.data            1                       # number of LoadLockedReq MSHR misses
system.cpu.dcache.LoadLockedReq_mshr_misses::total            1                       # number of LoadLockedReq MSHR misses
system.cpu.dcache.LoadLockedReq_mshr_miss_latency::.cpu.data        93000                       # number of LoadLockedReq MSHR miss cycles
system.cpu.dcache.LoadLockedReq_mshr_miss_latency::total        93000                       # number of LoadLockedReq MSHR miss cycles
system.cpu.dcache.LoadLockedReq_mshr_miss_rate::.cpu.data     0.006024                       # mshr miss rate for LoadLockedReq accesses
system.cpu.dcache.LoadLockedReq_mshr_miss_rate::total     0.006024                       # mshr miss rate for LoadLockedReq accesses
system.cpu.dcache.LoadLockedReq_avg_mshr_miss_latency::.cpu.data        93000                       # average LoadLockedReq mshr miss latency
system.cpu.dcache.LoadLockedReq_avg_mshr_miss_latency::total        93000                       # average LoadLockedReq mshr miss latency
system.cpu.dcache.StoreCondReq_hits::.cpu.data          166                       # number of StoreCondReq hits
system.cpu.dcache.StoreCondReq_hits::total          166                       # number of StoreCondReq hits
system.cpu.dcache.StoreCondReq_accesses::.cpu.data          166                       # number of StoreCondReq accesses(hits+misses)
system.cpu.dcache.StoreCondReq_accesses::total          166                       # number of StoreCondReq accesses(hits+misses)
system.cpu.dcache.tags.pwrStateResidencyTicks::UNDEFINED 118408476000                       # Cumulative time (in ticks) in various power states
system.cpu.dcache.tags.tagsinuse          1017.105721                       # Cycle average of tags in use
system.cpu.dcache.tags.total_refs            43862331                       # Total number of references to valid blocks.
system.cpu.dcache.tags.sampled_refs             64967                       # Sample count of references to valid blocks.
system.cpu.dcache.tags.avg_refs            675.147860                       # Average number of references to valid blocks.
system.cpu.dcache.tags.warmup_cycle            223000                       # Cycle when the warmup percentage was hit.
system.cpu.dcache.tags.occ_blocks::.cpu.data  1017.105721                       # Average occupied blocks per requestor
system.cpu.dcache.tags.occ_percent::.cpu.data     0.993267                       # Average percentage of cache occupancy
system.cpu.dcache.tags.occ_percent::total     0.993267                       # Average percentage of cache occupancy
system.cpu.dcache.tags.occ_task_id_blocks::1024         1024                       # Occupied blocks per task id
system.cpu.dcache.tags.age_task_id_blocks_1024::0            5                       # Occupied blocks per task id
system.cpu.dcache.tags.age_task_id_blocks_1024::1           55                       # Occupied blocks per task id
system.cpu.dcache.tags.age_task_id_blocks_1024::2          535                       # Occupied blocks per task id
system.cpu.dcache.tags.age_task_id_blocks_1024::3          385                       # Occupied blocks per task id
system.cpu.dcache.tags.age_task_id_blocks_1024::4           44                       # Occupied blocks per task id
system.cpu.dcache.tags.occ_task_id_percent::1024            1                       # Percentage of cache occupancy per task id
system.cpu.dcache.tags.tag_accesses         175533867                       # Number of tag accesses
system.cpu.dcache.tags.data_accesses        175533867                       # Number of data accesses
system.cpu.itb.walker.pwrStateResidencyTicks::UNDEFINED 118408476000                       # Cumulative time (in ticks) in various power states
system.cpu.itb.stage2_mmu.stage2_tlb.walker.pwrStateResidencyTicks::UNDEFINED 118408476000                       # Cumulative time (in ticks) in various power states

---------- End Simulation Statistics   ----------
