
---------- Begin Simulation Statistics ----------
final_tick                                99528237000                       # Number of ticks from beginning of simulation (restored from checkpoints and never reset)
host_inst_rate                                 155948                       # Simulator instruction rate (inst/s)
host_mem_usage                                 720828                       # Number of bytes of host memory used
host_op_rate                                   155953                       # Simulator op (including micro ops) rate (op/s)
host_seconds                                   641.24                       # Real time elapsed on the host
host_tick_rate                              155212366                       # Simulator tick rate (ticks/s)
sim_freq                                 1000000000000                       # Frequency of simulated ticks
sim_insts                                   100000000                       # Number of instructions simulated
sim_ops                                     100003445                       # Number of ops (including micro ops) simulated
sim_seconds                                  0.099528                       # Number of seconds simulated
sim_ticks                                 99528237000                       # Number of ticks simulated
system.cpu.branchPred.BTBCorrect                    0                       # Number of correct BTB predictions (this stat may not work properly.
system.cpu.branchPred.BTBHitPct             99.500774                       # BTB Hit Percentage
system.cpu.branchPred.BTBHits                  596734                       # Number of BTB hits
system.cpu.branchPred.BTBLookups               599728                       # Number of BTB lookups
system.cpu.branchPred.RASInCorrect                  7                       # Number of incorrect RAS predictions.
system.cpu.branchPred.condIncorrect               843                       # Number of conditional branches incorrect
system.cpu.branchPred.condPredicted            599932                       # Number of conditional branches predicted
system.cpu.branchPred.indirectHits                164                       # Number of indirect target hits.
system.cpu.branchPred.indirectLookups             372                       # Number of indirect predictor lookups.
system.cpu.branchPred.indirectMisses              208                       # Number of indirect misses.
system.cpu.branchPred.lookups                  602021                       # Number of BP lookups
system.cpu.branchPred.usedRAS                     559                       # Number of times the RAS was used to get a target.
system.cpu.branchPredindirectMispredicted          114                       # Number of mispredicted indirect branches.
system.cpu.committedInsts                   100000000                       # Number of instructions committed
system.cpu.committedOps                     100003445                       # Number of ops (including micro ops) committed
system.cpu.cpi                               1.990565                       # CPI: cycles per instruction
system.cpu.discardedOps                          2593                       # Number of ops (including micro ops) which were discarded before commit
system.cpu.dtb.accesses                             0                       # DTB accesses
system.cpu.dtb.align_faults                         0                       # Number of TLB faults due to alignment restrictions
system.cpu.dtb.domain_faults                        0                       # Number of TLB faults due to domain restrictions
system.cpu.dtb.flush_entries                        0                       # Number of entries that have been flushed from TLB
system.cpu.dtb.flush_tlb                            0                       # Number of times complete TLB was flushed
system.cpu.dtb.flush_tlb_asid                       0                       # Number of times TLB was flushed by ASID
system.cpu.dtb.flush_tlb_mva                        0                       # Number of times TLB was flushed by MVA
system.cpu.dtb.flush_tlb_mva_asid                   0                       # Number of times TLB was flushed by MVA & ASID
system.cpu.dtb.hits                                 0                       # DTB hits
system.cpu.dtb.inst_accesses                        0                       # ITB inst accesses
system.cpu.dtb.inst_hits                            0                       # ITB inst hits
system.cpu.dtb.inst_misses                          0                       # ITB inst misses
system.cpu.dtb.misses                               0                       # DTB misses
system.cpu.dtb.perms_faults                         0                       # Number of TLB faults due to permissions restrictions
system.cpu.dtb.prefetch_faults                      0                       # Number of TLB faults due to prefetch
system.cpu.dtb.read_accesses                        0                       # DTB read accesses
system.cpu.dtb.read_hits                            0                       # DTB read hits
system.cpu.dtb.read_misses                          0                       # DTB read misses
system.cpu.dtb.stage2_mmu.stage2_tlb.accesses            0                       # DTB accesses
system.cpu.dtb.stage2_mmu.stage2_tlb.align_faults            0                       # Number of TLB faults due to alignment restrictions
system.cpu.dtb.stage2_mmu.stage2_tlb.domain_faults            0                       # Number of TLB faults due to domain restrictions
system.cpu.dtb.stage2_mmu.stage2_tlb.flush_entries            0                       # Number of entries that have been flushed from TLB
system.cpu.dtb.stage2_mmu.stage2_tlb.flush_tlb            0                       # Number of times complete TLB was flushed
system.cpu.dtb.stage2_mmu.stage2_tlb.flush_tlb_asid            0                       # Number of times TLB was flushed by ASID
system.cpu.dtb.stage2_mmu.stage2_tlb.flush_tlb_mva            0                       # Number of times TLB was flushed by MVA
system.cpu.dtb.stage2_mmu.stage2_tlb.flush_tlb_mva_asid            0                       # Number of times TLB was flushed by MVA & ASID
system.cpu.dtb.stage2_mmu.stage2_tlb.hits            0                       # DTB hits
system.cpu.dtb.stage2_mmu.stage2_tlb.inst_accesses            0                       # ITB inst accesses
system.cpu.dtb.stage2_mmu.stage2_tlb.inst_hits            0                       # ITB inst hits
system.cpu.dtb.stage2_mmu.stage2_tlb.inst_misses            0                       # ITB inst misses
system.cpu.dtb.stage2_mmu.stage2_tlb.misses            0                       # DTB misses
system.cpu.dtb.stage2_mmu.stage2_tlb.perms_faults            0                       # Number of TLB faults due to permissions restrictions
system.cpu.dtb.stage2_mmu.stage2_tlb.prefetch_faults            0                       # Number of TLB faults due to prefetch
system.cpu.dtb.stage2_mmu.stage2_tlb.read_accesses            0                       # DTB read accesses
system.cpu.dtb.stage2_mmu.stage2_tlb.read_hits            0                       # DTB read hits
system.cpu.dtb.stage2_mmu.stage2_tlb.read_misses            0                       # DTB read misses
system.cpu.dtb.stage2_mmu.stage2_tlb.walker.walkRequestOrigin_Requested::Data            0                       # Table walker requests started/completed, data/inst
system.cpu.dtb.stage2_mmu.stage2_tlb.walker.walkRequestOrigin_Requested::Inst            0                       # Table walker requests started/completed, data/inst
system.cpu.dtb.stage2_mmu.stage2_tlb.walker.walkRequestOrigin_Requested::total            0                       # Table walker requests started/completed, data/inst
system.cpu.dtb.stage2_mmu.stage2_tlb.walker.walkRequestOrigin_Completed::Data            0                       # Table walker requests started/completed, data/inst
system.cpu.dtb.stage2_mmu.stage2_tlb.walker.walkRequestOrigin_Completed::Inst            0                       # Table walker requests started/completed, data/inst
system.cpu.dtb.stage2_mmu.stage2_tlb.walker.walkRequestOrigin_Completed::total            0                       # Table walker requests started/completed, data/inst
system.cpu.dtb.stage2_mmu.stage2_tlb.walker.walkRequestOrigin::total            0                       # Table walker requests started/completed, data/inst
system.cpu.dtb.stage2_mmu.stage2_tlb.walker.walks            0                       # Table walker walks requested
system.cpu.dtb.stage2_mmu.stage2_tlb.write_accesses            0                       # DTB write accesses
system.cpu.dtb.stage2_mmu.stage2_tlb.write_hits            0                       # DTB write hits
system.cpu.dtb.stage2_mmu.stage2_tlb.write_misses            0                       # DTB write misses
system.cpu.dtb.walker.walkRequestOrigin_Requested::Data            0                       # Table walker requests started/completed, data/inst
system.cpu.dtb.walker.walkRequestOrigin_Requested::Inst            0                       # Table walker requests started/completed, data/inst
system.cpu.dtb.walker.walkRequestOrigin_Requested::total            0                       # Table walker requests started/completed, data/inst
system.cpu.dtb.walker.walkRequestOrigin_Completed::Data            0                       # Table walker requests started/completed, data/inst
system.cpu.dtb.walker.walkRequestOrigin_Completed::Inst            0                       # Table walker requests started/completed, data/inst
system.cpu.dtb.walker.walkRequestOrigin_Completed::total            0                       # Table walker requests started/completed, data/inst
system.cpu.dtb.walker.walkRequestOrigin::total            0                       # Table walker requests started/completed, data/inst
system.cpu.dtb.walker.walks                         0                       # Table walker walks requested
system.cpu.dtb.write_accesses                       0                       # DTB write accesses
system.cpu.dtb.write_hits                           0                       # DTB write hits
system.cpu.dtb.write_misses                         0                       # DTB write misses
system.cpu.fetch2.amo_instructions                  0                       # Number of memory atomic instructions successfully decoded
system.cpu.fetch2.fp_instructions                   0                       # Number of floating point instructions successfully decoded
system.cpu.fetch2.int_instructions           49412127                       # Number of integer instructions successfully decoded
system.cpu.fetch2.load_instructions          36901203                       # Number of memory load instructions successfully decoded
system.cpu.fetch2.store_instructions         13094386                       # Number of memory store instructions successfully decoded
system.cpu.fetch2.vec_instructions                  0                       # Number of SIMD instructions successfully decoded
system.cpu.idleCycles                        85506619                       # Total number of cycles that the object has spent stopped
system.cpu.ipc                               0.502370                       # IPC: instructions per cycle
system.cpu.itb.accesses                             0                       # DTB accesses
system.cpu.itb.align_faults                         0                       # Number of TLB faults due to alignment restrictions
system.cpu.itb.domain_faults                        0                       # Number of TLB faults due to domain restrictions
system.cpu.itb.flush_entries                        0                       # Number of entries that have been flushed from TLB
system.cpu.itb.flush_tlb                            0                       # Number of times complete TLB was flushed
system.cpu.itb.flush_tlb_asid                       0                       # Number of times TLB was flushed by ASID
system.cpu.itb.flush_tlb_mva                        0                       # Number of times TLB was flushed by MVA
system.cpu.itb.flush_tlb_mva_asid                   0                       # Number of times TLB was flushed by MVA & ASID
system.cpu.itb.hits                                 0                       # DTB hits
system.cpu.itb.inst_accesses                        0                       # ITB inst accesses
system.cpu.itb.inst_hits                            0                       # ITB inst hits
system.cpu.itb.inst_misses                          0                       # ITB inst misses
system.cpu.itb.misses                               0                       # DTB misses
system.cpu.itb.perms_faults                         0                       # Number of TLB faults due to permissions restrictions
system.cpu.itb.prefetch_faults                      0                       # Number of TLB faults due to prefetch
system.cpu.itb.read_accesses                        0                       # DTB read accesses
system.cpu.itb.read_hits                            0                       # DTB read hits
system.cpu.itb.read_misses                          0                       # DTB read misses
system.cpu.itb.stage2_mmu.stage2_tlb.accesses            0                       # DTB accesses
system.cpu.itb.stage2_mmu.stage2_tlb.align_faults            0                       # Number of TLB faults due to alignment restrictions
system.cpu.itb.stage2_mmu.stage2_tlb.domain_faults            0                       # Number of TLB faults due to domain restrictions
system.cpu.itb.stage2_mmu.stage2_tlb.flush_entries            0                       # Number of entries that have been flushed from TLB
system.cpu.itb.stage2_mmu.stage2_tlb.flush_tlb            0                       # Number of times complete TLB was flushed
system.cpu.itb.stage2_mmu.stage2_tlb.flush_tlb_asid            0                       # Number of times TLB was flushed by ASID
system.cpu.itb.stage2_mmu.stage2_tlb.flush_tlb_mva            0                       # Number of times TLB was flushed by MVA
system.cpu.itb.stage2_mmu.stage2_tlb.flush_tlb_mva_asid            0                       # Number of times TLB was flushed by MVA & ASID
system.cpu.itb.stage2_mmu.stage2_tlb.hits            0                       # DTB hits
system.cpu.itb.stage2_mmu.stage2_tlb.inst_accesses            0                       # ITB inst accesses
system.cpu.itb.stage2_mmu.stage2_tlb.inst_hits            0                       # ITB inst hits
system.cpu.itb.stage2_mmu.stage2_tlb.inst_misses            0                       # ITB inst misses
system.cpu.itb.stage2_mmu.stage2_tlb.misses            0                       # DTB misses
system.cpu.itb.stage2_mmu.stage2_tlb.perms_faults            0                       # Number of TLB faults due to permissions restrictions
system.cpu.itb.stage2_mmu.stage2_tlb.prefetch_faults            0                       # Number of TLB faults due to prefetch
system.cpu.itb.stage2_mmu.stage2_tlb.read_accesses            0                       # DTB read accesses
system.cpu.itb.stage2_mmu.stage2_tlb.read_hits            0                       # DTB read hits
system.cpu.itb.stage2_mmu.stage2_tlb.read_misses            0                       # DTB read misses
system.cpu.itb.stage2_mmu.stage2_tlb.walker.walkRequestOrigin_Requested::Data            0                       # Table walker requests started/completed, data/inst
system.cpu.itb.stage2_mmu.stage2_tlb.walker.walkRequestOrigin_Requested::Inst            0                       # Table walker requests started/completed, data/inst
system.cpu.itb.stage2_mmu.stage2_tlb.walker.walkRequestOrigin_Requested::total            0                       # Table walker requests started/completed, data/inst
system.cpu.itb.stage2_mmu.stage2_tlb.walker.walkRequestOrigin_Completed::Data            0                       # Table walker requests started/completed, data/inst
system.cpu.itb.stage2_mmu.stage2_tlb.walker.walkRequestOrigin_Completed::Inst            0                       # Table walker requests started/completed, data/inst
system.cpu.itb.stage2_mmu.stage2_tlb.walker.walkRequestOrigin_Completed::total            0                       # Table walker requests started/completed, data/inst
system.cpu.itb.stage2_mmu.stage2_tlb.walker.walkRequestOrigin::total            0                       # Table walker requests started/completed, data/inst
system.cpu.itb.stage2_mmu.stage2_tlb.walker.walks            0                       # Table walker walks requested
system.cpu.itb.stage2_mmu.stage2_tlb.write_accesses            0                       # DTB write accesses
system.cpu.itb.stage2_mmu.stage2_tlb.write_hits            0                       # DTB write hits
system.cpu.itb.stage2_mmu.stage2_tlb.write_misses            0                       # DTB write misses
system.cpu.itb.walker.walkRequestOrigin_Requested::Data            0                       # Table walker requests started/completed, data/inst
system.cpu.itb.walker.walkRequestOrigin_Requested::Inst            0                       # Table walker requests started/completed, data/inst
system.cpu.itb.walker.walkRequestOrigin_Requested::total            0                       # Table walker requests started/completed, data/inst
system.cpu.itb.walker.walkRequestOrigin_Completed::Data            0                       # Table walker requests started/completed, data/inst
system.cpu.itb.walker.walkRequestOrigin_Completed::Inst            0                       # Table walker requests started/completed, data/inst
system.cpu.itb.walker.walkRequestOrigin_Completed::total            0                       # Table walker requests started/completed, data/inst
system.cpu.itb.walker.walkRequestOrigin::total            0                       # Table walker requests started/completed, data/inst
system.cpu.itb.walker.walks                         0                       # Table walker walks requested
system.cpu.itb.write_accesses                       0                       # DTB write accesses
system.cpu.itb.write_hits                           0                       # DTB write hits
system.cpu.itb.write_misses                         0                       # DTB write misses
system.cpu.numCycles                        199056474                       # number of cpu cycles simulated
system.cpu.numFetchSuspends                         0                       # Number of times Execute suspended instruction fetching
system.cpu.numWorkItemsCompleted                    0                       # number of work items this cpu completed
system.cpu.numWorkItemsStarted                      0                       # number of work items this cpu started
system.cpu.op_class_0::No_OpClass                   0      0.00%      0.00% # Class of committed instruction
system.cpu.op_class_0::IntAlu                50006868     50.01%     50.01% # Class of committed instruction
system.cpu.op_class_0::IntMult                     85      0.00%     50.01% # Class of committed instruction
system.cpu.op_class_0::IntDiv                       0      0.00%     50.01% # Class of committed instruction
system.cpu.op_class_0::FloatAdd                     0      0.00%     50.01% # Class of committed instruction
system.cpu.op_class_0::FloatCmp                     0      0.00%     50.01% # Class of committed instruction
system.cpu.op_class_0::FloatCvt                     0      0.00%     50.01% # Class of committed instruction
system.cpu.op_class_0::FloatMult                    0      0.00%     50.01% # Class of committed instruction
system.cpu.op_class_0::FloatMultAcc                 0      0.00%     50.01% # Class of committed instruction
system.cpu.op_class_0::FloatDiv                     0      0.00%     50.01% # Class of committed instruction
system.cpu.op_class_0::FloatMisc                    0      0.00%     50.01% # Class of committed instruction
system.cpu.op_class_0::FloatSqrt                    0      0.00%     50.01% # Class of committed instruction
system.cpu.op_class_0::SimdAdd                      0      0.00%     50.01% # Class of committed instruction
system.cpu.op_class_0::SimdAddAcc                   0      0.00%     50.01% # Class of committed instruction
system.cpu.op_class_0::SimdAlu                      0      0.00%     50.01% # Class of committed instruction
system.cpu.op_class_0::SimdCmp                      0      0.00%     50.01% # Class of committed instruction
system.cpu.op_class_0::SimdCvt                      0      0.00%     50.01% # Class of committed instruction
system.cpu.op_class_0::SimdMisc                     0      0.00%     50.01% # Class of committed instruction
system.cpu.op_class_0::SimdMult                     0      0.00%     50.01% # Class of committed instruction
system.cpu.op_class_0::SimdMultAcc                  0      0.00%     50.01% # Class of committed instruction
system.cpu.op_class_0::SimdShift                    0      0.00%     50.01% # Class of committed instruction
system.cpu.op_class_0::SimdShiftAcc                 0      0.00%     50.01% # Class of committed instruction
system.cpu.op_class_0::SimdDiv                      0      0.00%     50.01% # Class of committed instruction
system.cpu.op_class_0::SimdSqrt                     0      0.00%     50.01% # Class of committed instruction
system.cpu.op_class_0::SimdFloatAdd                 0      0.00%     50.01% # Class of committed instruction
system.cpu.op_class_0::SimdFloatAlu                 0      0.00%     50.01% # Class of committed instruction
system.cpu.op_class_0::SimdFloatCmp                 2      0.00%     50.01% # Class of committed instruction
system.cpu.op_class_0::SimdFloatCvt                 0      0.00%     50.01% # Class of committed instruction
system.cpu.op_class_0::SimdFloatDiv                 0      0.00%     50.01% # Class of committed instruction
system.cpu.op_class_0::SimdFloatMisc                5      0.00%     50.01% # Class of committed instruction
system.cpu.op_class_0::SimdFloatMult                0      0.00%     50.01% # Class of committed instruction
system.cpu.op_class_0::SimdFloatMultAcc             0      0.00%     50.01% # Class of committed instruction
system.cpu.op_class_0::SimdFloatSqrt                0      0.00%     50.01% # Class of committed instruction
system.cpu.op_class_0::SimdReduceAdd                0      0.00%     50.01% # Class of committed instruction
system.cpu.op_class_0::SimdReduceAlu                0      0.00%     50.01% # Class of committed instruction
system.cpu.op_class_0::SimdReduceCmp                0      0.00%     50.01% # Class of committed instruction
system.cpu.op_class_0::SimdFloatReduceAdd            0      0.00%     50.01% # Class of committed instruction
system.cpu.op_class_0::SimdFloatReduceCmp            0      0.00%     50.01% # Class of committed instruction
system.cpu.op_class_0::SimdAes                      0      0.00%     50.01% # Class of committed instruction
system.cpu.op_class_0::SimdAesMix                   0      0.00%     50.01% # Class of committed instruction
system.cpu.op_class_0::SimdSha1Hash                 0      0.00%     50.01% # Class of committed instruction
system.cpu.op_class_0::SimdSha1Hash2                0      0.00%     50.01% # Class of committed instruction
system.cpu.op_class_0::SimdSha256Hash               0      0.00%     50.01% # Class of committed instruction
system.cpu.op_class_0::SimdSha256Hash2              0      0.00%     50.01% # Class of committed instruction
system.cpu.op_class_0::SimdShaSigma2                0      0.00%     50.01% # Class of committed instruction
system.cpu.op_class_0::SimdShaSigma3                0      0.00%     50.01% # Class of committed instruction
system.cpu.op_class_0::SimdPredAlu                  0      0.00%     50.01% # Class of committed instruction
system.cpu.op_class_0::MemRead               36900855     36.90%     86.90% # Class of committed instruction
system.cpu.op_class_0::MemWrite              13095630     13.10%    100.00% # Class of committed instruction
system.cpu.op_class_0::FloatMemRead                 0      0.00%    100.00% # Class of committed instruction
system.cpu.op_class_0::FloatMemWrite                0      0.00%    100.00% # Class of committed instruction
system.cpu.op_class_0::IprAccess                    0      0.00%    100.00% # Class of committed instruction
system.cpu.op_class_0::InstPrefetch                 0      0.00%    100.00% # Class of committed instruction
system.cpu.op_class_0::total                100003445                       # Class of committed instruction
system.cpu.tickCycles                       113549855                       # Number of cycles that the object actually ticked
system.cpu.workload.numSyscalls                    19                       # Number of system calls
system.membus.snoop_filter.hit_multi_requests            0                       # Number of requests hitting in the snoop filter with multiple (>1) holders of the requested data.
system.membus.snoop_filter.hit_multi_snoops            0                       # Number of snoops hitting in the snoop filter with multiple (>1) holders of the requested data.
system.membus.snoop_filter.hit_single_requests       363937                       # Number of requests hitting in the snoop filter with a single holder of the requested data.
system.membus.snoop_filter.hit_single_snoops            0                       # Number of snoops hitting in the snoop filter with a single holder of the requested data.
system.membus.snoop_filter.tot_requests        736180                       # Total number of requests made to the snoop filter.
system.membus.snoop_filter.tot_snoops               0                       # Total number of snoops made to the snoop filter.
system.tol2bus.snoop_filter.hit_multi_requests           51                       # Number of requests hitting in the snoop filter with multiple (>1) holders of the requested data.
system.tol2bus.snoop_filter.hit_multi_snoops            1                       # Number of snoops hitting in the snoop filter with multiple (>1) holders of the requested data.
system.tol2bus.snoop_filter.hit_single_requests       372025                       # Number of requests hitting in the snoop filter with a single holder of the requested data.
system.tol2bus.snoop_filter.hit_single_snoops          113                       # Number of snoops hitting in the snoop filter with a single holder of the requested data.
system.tol2bus.snoop_filter.tot_requests       744416                       # Total number of requests made to the snoop filter.
system.tol2bus.snoop_filter.tot_snoops            114                       # Total number of snoops made to the snoop filter.
system.membus.pwrStateResidencyTicks::UNDEFINED  99528237000                       # Cumulative time (in ticks) in various power states
system.membus.trans_dist::ReadResp                274                       # Transaction distribution
system.membus.trans_dist::WritebackDirty       363786                       # Transaction distribution
system.membus.trans_dist::CleanEvict              151                       # Transaction distribution
system.membus.trans_dist::ReadExReq            371969                       # Transaction distribution
system.membus.trans_dist::ReadExResp           371969                       # Transaction distribution
system.membus.trans_dist::ReadSharedReq           274                       # Transaction distribution
system.membus.pkt_count_system.l2.mem_side::system.mem_ctrls.port      1108423                       # Packet count per connected master and slave (bytes)
system.membus.pkt_count::total                1108423                       # Packet count per connected master and slave (bytes)
system.membus.pkt_size_system.l2.mem_side::system.mem_ctrls.port    188423424                       # Cumulative packet size per connected master and slave (bytes)
system.membus.pkt_size::total               188423424                       # Cumulative packet size per connected master and slave (bytes)
system.membus.snoops                                0                       # Total snoops (count)
system.membus.snoopTraffic                          0                       # Total snoop traffic (bytes)
system.membus.snoop_fanout::samples            372243                       # Request fanout histogram
system.membus.snoop_fanout::mean                    0                       # Request fanout histogram
system.membus.snoop_fanout::stdev                   0                       # Request fanout histogram
system.membus.snoop_fanout::underflows              0      0.00%      0.00% # Request fanout histogram
system.membus.snoop_fanout::0                  372243    100.00%    100.00% # Request fanout histogram
system.membus.snoop_fanout::1                       0      0.00%    100.00% # Request fanout histogram
system.membus.snoop_fanout::overflows               0      0.00%    100.00% # Request fanout histogram
system.membus.snoop_fanout::min_value               0                       # Request fanout histogram
system.membus.snoop_fanout::max_value               0                       # Request fanout histogram
system.membus.snoop_fanout::total              372243                       # Request fanout histogram
system.membus.respLayer1.occupancy         6447707250                       # Layer occupancy (ticks)
system.membus.respLayer1.utilization              6.5                       # Layer utilization (%)
system.membus.reqLayer0.occupancy          6668413500                       # Layer occupancy (ticks)
system.membus.reqLayer0.utilization               6.7                       # Layer utilization (%)
system.tol2bus.pwrStateResidencyTicks::UNDEFINED  99528237000                       # Cumulative time (in ticks) in various power states
system.tol2bus.trans_dist::ReadResp               423                       # Transaction distribution
system.tol2bus.trans_dist::WritebackDirty       735513                       # Transaction distribution
system.tol2bus.trans_dist::WritebackClean          240                       # Transaction distribution
system.tol2bus.trans_dist::CleanEvict             322                       # Transaction distribution
system.tol2bus.trans_dist::ReadExReq           371969                       # Transaction distribution
system.tol2bus.trans_dist::ReadExResp          371969                       # Transaction distribution
system.tol2bus.trans_dist::ReadCleanReq           352                       # Transaction distribution
system.tol2bus.trans_dist::ReadSharedReq           71                       # Transaction distribution
system.tol2bus.pkt_count_system.cpu.icache.mem_side::system.l2.cpu_side          944                       # Packet count per connected master and slave (bytes)
system.tol2bus.pkt_count_system.cpu.dcache.mem_side::system.l2.cpu_side      1115864                       # Packet count per connected master and slave (bytes)
system.tol2bus.pkt_count::total               1116808                       # Packet count per connected master and slave (bytes)
system.tol2bus.pkt_size_system.cpu.icache.mem_side::system.l2.cpu_side       151552                       # Cumulative packet size per connected master and slave (bytes)
system.tol2bus.pkt_size_system.cpu.dcache.mem_side::system.l2.cpu_side    190404352                       # Cumulative packet size per connected master and slave (bytes)
system.tol2bus.pkt_size::total              190555904                       # Cumulative packet size per connected master and slave (bytes)
system.tol2bus.snoops                          364051                       # Total snoops (count)
system.tol2bus.snoopTraffic                  93129216                       # Total snoop traffic (bytes)
system.tol2bus.snoop_fanout::samples           736443                       # Request fanout histogram
system.tol2bus.snoop_fanout::mean            0.000227                       # Request fanout histogram
system.tol2bus.snoop_fanout::stdev           0.015147                       # Request fanout histogram
system.tol2bus.snoop_fanout::underflows             0      0.00%      0.00% # Request fanout histogram
system.tol2bus.snoop_fanout::0                 736277     99.98%     99.98% # Request fanout histogram
system.tol2bus.snoop_fanout::1                    165      0.02%    100.00% # Request fanout histogram
system.tol2bus.snoop_fanout::2                      1      0.00%    100.00% # Request fanout histogram
system.tol2bus.snoop_fanout::overflows              0      0.00%    100.00% # Request fanout histogram
system.tol2bus.snoop_fanout::min_value              0                       # Request fanout histogram
system.tol2bus.snoop_fanout::max_value              2                       # Request fanout histogram
system.tol2bus.snoop_fanout::total             736443                       # Request fanout histogram
system.tol2bus.reqLayer0.occupancy         1860076000                       # Layer occupancy (ticks)
system.tol2bus.reqLayer0.utilization              1.9                       # Layer utilization (%)
system.tol2bus.respLayer1.occupancy        1674181497                       # Layer occupancy (ticks)
system.tol2bus.respLayer1.utilization             1.7                       # Layer utilization (%)
system.tol2bus.respLayer0.occupancy           1584499                       # Layer occupancy (ticks)
system.tol2bus.respLayer0.utilization             0.0                       # Layer utilization (%)
system.voltage_domain.voltage                       1                       # Voltage in Volts
system.clk_domain.clock                          1000                       # Clock period in ticks
system.l2.pwrStateResidencyTicks::UNDEFINED  99528237000                       # Cumulative time (in ticks) in various power states
system.l2.demand_hits::.cpu.inst                  124                       # number of demand (read+write) hits
system.l2.demand_hits::.cpu.data                   21                       # number of demand (read+write) hits
system.l2.demand_hits::total                      145                       # number of demand (read+write) hits
system.l2.overall_hits::.cpu.inst                 124                       # number of overall hits
system.l2.overall_hits::.cpu.data                  21                       # number of overall hits
system.l2.overall_hits::total                     145                       # number of overall hits
system.l2.demand_misses::.cpu.inst                228                       # number of demand (read+write) misses
system.l2.demand_misses::.cpu.data             372019                       # number of demand (read+write) misses
system.l2.demand_misses::total                 372247                       # number of demand (read+write) misses
system.l2.overall_misses::.cpu.inst               228                       # number of overall misses
system.l2.overall_misses::.cpu.data            372019                       # number of overall misses
system.l2.overall_misses::total                372247                       # number of overall misses
system.l2.demand_miss_latency::.cpu.inst     20970000                       # number of demand (read+write) miss cycles
system.l2.demand_miss_latency::.cpu.data  39163940000                       # number of demand (read+write) miss cycles
system.l2.demand_miss_latency::total      39184910000                       # number of demand (read+write) miss cycles
system.l2.overall_miss_latency::.cpu.inst     20970000                       # number of overall miss cycles
system.l2.overall_miss_latency::.cpu.data  39163940000                       # number of overall miss cycles
system.l2.overall_miss_latency::total     39184910000                       # number of overall miss cycles
system.l2.demand_accesses::.cpu.inst              352                       # number of demand (read+write) accesses
system.l2.demand_accesses::.cpu.data           372040                       # number of demand (read+write) accesses
system.l2.demand_accesses::total               372392                       # number of demand (read+write) accesses
system.l2.overall_accesses::.cpu.inst             352                       # number of overall (read+write) accesses
system.l2.overall_accesses::.cpu.data          372040                       # number of overall (read+write) accesses
system.l2.overall_accesses::total              372392                       # number of overall (read+write) accesses
system.l2.demand_miss_rate::.cpu.inst        0.647727                       # miss rate for demand accesses
system.l2.demand_miss_rate::.cpu.data        0.999944                       # miss rate for demand accesses
system.l2.demand_miss_rate::total            0.999611                       # miss rate for demand accesses
system.l2.overall_miss_rate::.cpu.inst       0.647727                       # miss rate for overall accesses
system.l2.overall_miss_rate::.cpu.data       0.999944                       # miss rate for overall accesses
system.l2.overall_miss_rate::total           0.999611                       # miss rate for overall accesses
system.l2.demand_avg_miss_latency::.cpu.inst 91973.684211                       # average overall miss latency
system.l2.demand_avg_miss_latency::.cpu.data 105274.031703                       # average overall miss latency
system.l2.demand_avg_miss_latency::total 105265.885286                       # average overall miss latency
system.l2.overall_avg_miss_latency::.cpu.inst 91973.684211                       # average overall miss latency
system.l2.overall_avg_miss_latency::.cpu.data 105274.031703                       # average overall miss latency
system.l2.overall_avg_miss_latency::total 105265.885286                       # average overall miss latency
system.l2.blocked_cycles::no_mshrs                  0                       # number of cycles access was blocked
system.l2.blocked_cycles::no_targets                0                       # number of cycles access was blocked
system.l2.blocked::no_mshrs                         0                       # number of cycles access was blocked
system.l2.blocked::no_targets                       0                       # number of cycles access was blocked
system.l2.avg_blocked_cycles::no_mshrs            nan                       # average number of cycles each access was blocked
system.l2.avg_blocked_cycles::no_targets          nan                       # average number of cycles each access was blocked
system.l2.writebacks::.writebacks              363786                       # number of writebacks
system.l2.writebacks::total                    363786                       # number of writebacks
system.l2.demand_mshr_hits::.cpu.inst               1                       # number of demand (read+write) MSHR hits
system.l2.demand_mshr_hits::.cpu.data               3                       # number of demand (read+write) MSHR hits
system.l2.demand_mshr_hits::total                   4                       # number of demand (read+write) MSHR hits
system.l2.overall_mshr_hits::.cpu.inst              1                       # number of overall MSHR hits
system.l2.overall_mshr_hits::.cpu.data              3                       # number of overall MSHR hits
system.l2.overall_mshr_hits::total                  4                       # number of overall MSHR hits
system.l2.demand_mshr_misses::.cpu.inst           227                       # number of demand (read+write) MSHR misses
system.l2.demand_mshr_misses::.cpu.data        372016                       # number of demand (read+write) MSHR misses
system.l2.demand_mshr_misses::total            372243                       # number of demand (read+write) MSHR misses
system.l2.overall_mshr_misses::.cpu.inst          227                       # number of overall MSHR misses
system.l2.overall_mshr_misses::.cpu.data       372016                       # number of overall MSHR misses
system.l2.overall_mshr_misses::total           372243                       # number of overall MSHR misses
system.l2.demand_mshr_miss_latency::.cpu.inst     18682500                       # number of demand (read+write) MSHR miss cycles
system.l2.demand_mshr_miss_latency::.cpu.data  35443543500                       # number of demand (read+write) MSHR miss cycles
system.l2.demand_mshr_miss_latency::total  35462226000                       # number of demand (read+write) MSHR miss cycles
system.l2.overall_mshr_miss_latency::.cpu.inst     18682500                       # number of overall MSHR miss cycles
system.l2.overall_mshr_miss_latency::.cpu.data  35443543500                       # number of overall MSHR miss cycles
system.l2.overall_mshr_miss_latency::total  35462226000                       # number of overall MSHR miss cycles
system.l2.demand_mshr_miss_rate::.cpu.inst     0.644886                       # mshr miss rate for demand accesses
system.l2.demand_mshr_miss_rate::.cpu.data     0.999935                       # mshr miss rate for demand accesses
system.l2.demand_mshr_miss_rate::total       0.999600                       # mshr miss rate for demand accesses
system.l2.overall_mshr_miss_rate::.cpu.inst     0.644886                       # mshr miss rate for overall accesses
system.l2.overall_mshr_miss_rate::.cpu.data     0.999935                       # mshr miss rate for overall accesses
system.l2.overall_mshr_miss_rate::total      0.999600                       # mshr miss rate for overall accesses
system.l2.demand_avg_mshr_miss_latency::.cpu.inst 82301.762115                       # average overall mshr miss latency
system.l2.demand_avg_mshr_miss_latency::.cpu.data 95274.244925                       # average overall mshr miss latency
system.l2.demand_avg_mshr_miss_latency::total 95266.334088                       # average overall mshr miss latency
system.l2.overall_avg_mshr_miss_latency::.cpu.inst 82301.762115                       # average overall mshr miss latency
system.l2.overall_avg_mshr_miss_latency::.cpu.data 95274.244925                       # average overall mshr miss latency
system.l2.overall_avg_mshr_miss_latency::total 95266.334088                       # average overall mshr miss latency
system.l2.replacements                         364051                       # number of replacements
system.l2.WritebackDirty_hits::.writebacks       371727                       # number of WritebackDirty hits
system.l2.WritebackDirty_hits::total           371727                       # number of WritebackDirty hits
system.l2.WritebackDirty_accesses::.writebacks       371727                       # number of WritebackDirty accesses(hits+misses)
system.l2.WritebackDirty_accesses::total       371727                       # number of WritebackDirty accesses(hits+misses)
system.l2.WritebackClean_hits::.writebacks          203                       # number of WritebackClean hits
system.l2.WritebackClean_hits::total              203                       # number of WritebackClean hits
system.l2.WritebackClean_accesses::.writebacks          203                       # number of WritebackClean accesses(hits+misses)
system.l2.WritebackClean_accesses::total          203                       # number of WritebackClean accesses(hits+misses)
system.l2.ReadExReq_misses::.cpu.data          371969                       # number of ReadExReq misses
system.l2.ReadExReq_misses::total              371969                       # number of ReadExReq misses
system.l2.ReadExReq_miss_latency::.cpu.data  39158732000                       # number of ReadExReq miss cycles
system.l2.ReadExReq_miss_latency::total   39158732000                       # number of ReadExReq miss cycles
system.l2.ReadExReq_accesses::.cpu.data        371969                       # number of ReadExReq accesses(hits+misses)
system.l2.ReadExReq_accesses::total            371969                       # number of ReadExReq accesses(hits+misses)
system.l2.ReadExReq_miss_rate::.cpu.data            1                       # miss rate for ReadExReq accesses
system.l2.ReadExReq_miss_rate::total                1                       # miss rate for ReadExReq accesses
system.l2.ReadExReq_avg_miss_latency::.cpu.data 105274.181451                       # average ReadExReq miss latency
system.l2.ReadExReq_avg_miss_latency::total 105274.181451                       # average ReadExReq miss latency
system.l2.ReadExReq_mshr_misses::.cpu.data       371969                       # number of ReadExReq MSHR misses
system.l2.ReadExReq_mshr_misses::total         371969                       # number of ReadExReq MSHR misses
system.l2.ReadExReq_mshr_miss_latency::.cpu.data  35439042000                       # number of ReadExReq MSHR miss cycles
system.l2.ReadExReq_mshr_miss_latency::total  35439042000                       # number of ReadExReq MSHR miss cycles
system.l2.ReadExReq_mshr_miss_rate::.cpu.data            1                       # mshr miss rate for ReadExReq accesses
system.l2.ReadExReq_mshr_miss_rate::total            1                       # mshr miss rate for ReadExReq accesses
system.l2.ReadExReq_avg_mshr_miss_latency::.cpu.data 95274.181451                       # average ReadExReq mshr miss latency
system.l2.ReadExReq_avg_mshr_miss_latency::total 95274.181451                       # average ReadExReq mshr miss latency
system.l2.ReadCleanReq_hits::.cpu.inst            124                       # number of ReadCleanReq hits
system.l2.ReadCleanReq_hits::total                124                       # number of ReadCleanReq hits
system.l2.ReadCleanReq_misses::.cpu.inst          228                       # number of ReadCleanReq misses
system.l2.ReadCleanReq_misses::total              228                       # number of ReadCleanReq misses
system.l2.ReadCleanReq_miss_latency::.cpu.inst     20970000                       # number of ReadCleanReq miss cycles
system.l2.ReadCleanReq_miss_latency::total     20970000                       # number of ReadCleanReq miss cycles
system.l2.ReadCleanReq_accesses::.cpu.inst          352                       # number of ReadCleanReq accesses(hits+misses)
system.l2.ReadCleanReq_accesses::total            352                       # number of ReadCleanReq accesses(hits+misses)
system.l2.ReadCleanReq_miss_rate::.cpu.inst     0.647727                       # miss rate for ReadCleanReq accesses
system.l2.ReadCleanReq_miss_rate::total      0.647727                       # miss rate for ReadCleanReq accesses
system.l2.ReadCleanReq_avg_miss_latency::.cpu.inst 91973.684211                       # average ReadCleanReq miss latency
system.l2.ReadCleanReq_avg_miss_latency::total 91973.684211                       # average ReadCleanReq miss latency
system.l2.ReadCleanReq_mshr_hits::.cpu.inst            1                       # number of ReadCleanReq MSHR hits
system.l2.ReadCleanReq_mshr_hits::total             1                       # number of ReadCleanReq MSHR hits
system.l2.ReadCleanReq_mshr_misses::.cpu.inst          227                       # number of ReadCleanReq MSHR misses
system.l2.ReadCleanReq_mshr_misses::total          227                       # number of ReadCleanReq MSHR misses
system.l2.ReadCleanReq_mshr_miss_latency::.cpu.inst     18682500                       # number of ReadCleanReq MSHR miss cycles
system.l2.ReadCleanReq_mshr_miss_latency::total     18682500                       # number of ReadCleanReq MSHR miss cycles
system.l2.ReadCleanReq_mshr_miss_rate::.cpu.inst     0.644886                       # mshr miss rate for ReadCleanReq accesses
system.l2.ReadCleanReq_mshr_miss_rate::total     0.644886                       # mshr miss rate for ReadCleanReq accesses
system.l2.ReadCleanReq_avg_mshr_miss_latency::.cpu.inst 82301.762115                       # average ReadCleanReq mshr miss latency
system.l2.ReadCleanReq_avg_mshr_miss_latency::total 82301.762115                       # average ReadCleanReq mshr miss latency
system.l2.ReadSharedReq_hits::.cpu.data            21                       # number of ReadSharedReq hits
system.l2.ReadSharedReq_hits::total                21                       # number of ReadSharedReq hits
system.l2.ReadSharedReq_misses::.cpu.data           50                       # number of ReadSharedReq misses
system.l2.ReadSharedReq_misses::total              50                       # number of ReadSharedReq misses
system.l2.ReadSharedReq_miss_latency::.cpu.data      5208000                       # number of ReadSharedReq miss cycles
system.l2.ReadSharedReq_miss_latency::total      5208000                       # number of ReadSharedReq miss cycles
system.l2.ReadSharedReq_accesses::.cpu.data           71                       # number of ReadSharedReq accesses(hits+misses)
system.l2.ReadSharedReq_accesses::total            71                       # number of ReadSharedReq accesses(hits+misses)
system.l2.ReadSharedReq_miss_rate::.cpu.data     0.704225                       # miss rate for ReadSharedReq accesses
system.l2.ReadSharedReq_miss_rate::total     0.704225                       # miss rate for ReadSharedReq accesses
system.l2.ReadSharedReq_avg_miss_latency::.cpu.data       104160                       # average ReadSharedReq miss latency
system.l2.ReadSharedReq_avg_miss_latency::total       104160                       # average ReadSharedReq miss latency
system.l2.ReadSharedReq_mshr_hits::.cpu.data            3                       # number of ReadSharedReq MSHR hits
system.l2.ReadSharedReq_mshr_hits::total            3                       # number of ReadSharedReq MSHR hits
system.l2.ReadSharedReq_mshr_misses::.cpu.data           47                       # number of ReadSharedReq MSHR misses
system.l2.ReadSharedReq_mshr_misses::total           47                       # number of ReadSharedReq MSHR misses
system.l2.ReadSharedReq_mshr_miss_latency::.cpu.data      4501500                       # number of ReadSharedReq MSHR miss cycles
system.l2.ReadSharedReq_mshr_miss_latency::total      4501500                       # number of ReadSharedReq MSHR miss cycles
system.l2.ReadSharedReq_mshr_miss_rate::.cpu.data     0.661972                       # mshr miss rate for ReadSharedReq accesses
system.l2.ReadSharedReq_mshr_miss_rate::total     0.661972                       # mshr miss rate for ReadSharedReq accesses
system.l2.ReadSharedReq_avg_mshr_miss_latency::.cpu.data 95776.595745                       # average ReadSharedReq mshr miss latency
system.l2.ReadSharedReq_avg_mshr_miss_latency::total 95776.595745                       # average ReadSharedReq mshr miss latency
system.l2.tags.pwrStateResidencyTicks::UNDEFINED  99528237000                       # Cumulative time (in ticks) in various power states
system.l2.tags.tagsinuse                  8106.977791                       # Cycle average of tags in use
system.l2.tags.total_refs                      744361                       # Total number of references to valid blocks.
system.l2.tags.sampled_refs                    372243                       # Sample count of references to valid blocks.
system.l2.tags.avg_refs                      1.999664                       # Average number of references to valid blocks.
system.l2.tags.warmup_cycle                     92000                       # Cycle when the warmup percentage was hit.
system.l2.tags.occ_blocks::.cpu.inst         4.514377                       # Average occupied blocks per requestor
system.l2.tags.occ_blocks::.cpu.data      8102.463414                       # Average occupied blocks per requestor
system.l2.tags.occ_percent::.cpu.inst        0.000551                       # Average percentage of cache occupancy
system.l2.tags.occ_percent::.cpu.data        0.989070                       # Average percentage of cache occupancy
system.l2.tags.occ_percent::total            0.989621                       # Average percentage of cache occupancy
system.l2.tags.occ_task_id_blocks::1024          8192                       # Occupied blocks per task id
system.l2.tags.age_task_id_blocks_1024::0           37                       # Occupied blocks per task id
system.l2.tags.age_task_id_blocks_1024::1          336                       # Occupied blocks per task id
system.l2.tags.age_task_id_blocks_1024::2         3364                       # Occupied blocks per task id
system.l2.tags.age_task_id_blocks_1024::3         4455                       # Occupied blocks per task id
system.l2.tags.occ_task_id_percent::1024            1                       # Percentage of cache occupancy per task id
system.l2.tags.tag_accesses                   6327163                       # Number of tag accesses
system.l2.tags.data_accesses                  6327163                       # Number of data accesses
system.cpu_voltage_domain.voltage                   1                       # Voltage in Volts
system.mem_ctrls.pwrStateResidencyTicks::UNDEFINED  99528237000                       # Cumulative time (in ticks) in various power states
system.mem_ctrls.bytes_read::.cpu.inst          58112                       # Number of bytes read from this memory
system.mem_ctrls.bytes_read::.cpu.data       95236096                       # Number of bytes read from this memory
system.mem_ctrls.bytes_read::total           95294208                       # Number of bytes read from this memory
system.mem_ctrls.bytes_inst_read::.cpu.inst        58112                       # Number of instructions bytes read from this memory
system.mem_ctrls.bytes_inst_read::total         58112                       # Number of instructions bytes read from this memory
system.mem_ctrls.bytes_written::.writebacks     93129216                       # Number of bytes written to this memory
system.mem_ctrls.bytes_written::total        93129216                       # Number of bytes written to this memory
system.mem_ctrls.num_reads::.cpu.inst             227                       # Number of read requests responded to by this memory
system.mem_ctrls.num_reads::.cpu.data          372016                       # Number of read requests responded to by this memory
system.mem_ctrls.num_reads::total              372243                       # Number of read requests responded to by this memory
system.mem_ctrls.num_writes::.writebacks       363786                       # Number of write requests responded to by this memory
system.mem_ctrls.num_writes::total             363786                       # Number of write requests responded to by this memory
system.mem_ctrls.bw_read::.cpu.inst            583875                       # Total read bandwidth from this memory (bytes/s)
system.mem_ctrls.bw_read::.cpu.data         956875143                       # Total read bandwidth from this memory (bytes/s)
system.mem_ctrls.bw_read::total             957459017                       # Total read bandwidth from this memory (bytes/s)
system.mem_ctrls.bw_inst_read::.cpu.inst       583875                       # Instruction read bandwidth from this memory (bytes/s)
system.mem_ctrls.bw_inst_read::total           583875                       # Instruction read bandwidth from this memory (bytes/s)
system.mem_ctrls.bw_write::.writebacks      935706477                       # Write bandwidth from this memory (bytes/s)
system.mem_ctrls.bw_write::total            935706477                       # Write bandwidth from this memory (bytes/s)
system.mem_ctrls.bw_total::.writebacks      935706477                       # Total bandwidth to/from this memory (bytes/s)
system.mem_ctrls.bw_total::.cpu.inst           583875                       # Total bandwidth to/from this memory (bytes/s)
system.mem_ctrls.bw_total::.cpu.data        956875143                       # Total bandwidth to/from this memory (bytes/s)
system.mem_ctrls.bw_total::total           1893165494                       # Total bandwidth to/from this memory (bytes/s)
system.mem_ctrls.avgPriority_.writebacks::samples   1455144.00                       # Average QoS priority value for accepted requests
system.mem_ctrls.avgPriority_.cpu.inst::samples       908.00                       # Average QoS priority value for accepted requests
system.mem_ctrls.avgPriority_.cpu.data::samples   1488064.00                       # Average QoS priority value for accepted requests
system.mem_ctrls.priorityMinLatency      0.000000018750                       # per QoS priority minimum request to response latency (s)
system.mem_ctrls.priorityMaxLatency      0.000284358750                       # per QoS priority maximum request to response latency (s)
system.mem_ctrls.numReadWriteTurnArounds        72759                       # Number of turnarounds from READ to WRITE
system.mem_ctrls.numWriteReadTurnArounds        72759                       # Number of turnarounds from WRITE to READ
system.mem_ctrls.numStayReadState             2250221                       # Number of times bus staying in READ state
system.mem_ctrls.numStayWriteState            1382417                       # Number of times bus staying in WRITE state
system.mem_ctrls.readReqs                      372243                       # Number of read requests accepted
system.mem_ctrls.writeReqs                     363786                       # Number of write requests accepted
system.mem_ctrls.readBursts                   1488972                       # Number of DRAM read bursts, including those serviced by the write queue
system.mem_ctrls.writeBursts                  1455144                       # Number of DRAM write bursts, including those merged in the write queue
system.mem_ctrls.servicedByWrQ                      0                       # Number of DRAM read bursts serviced by the write queue
system.mem_ctrls.mergedWrBursts                     0                       # Number of DRAM write bursts merged with an existing one
system.mem_ctrls.neitherReadNorWriteReqs            0                       # Number of requests that are neither read nor write
system.mem_ctrls.perBankRdBursts::0             93040                       # Per bank write bursts
system.mem_ctrls.perBankRdBursts::1             93000                       # Per bank write bursts
system.mem_ctrls.perBankRdBursts::2             93184                       # Per bank write bursts
system.mem_ctrls.perBankRdBursts::3             93124                       # Per bank write bursts
system.mem_ctrls.perBankRdBursts::4             93128                       # Per bank write bursts
system.mem_ctrls.perBankRdBursts::5             93076                       # Per bank write bursts
system.mem_ctrls.perBankRdBursts::6             93124                       # Per bank write bursts
system.mem_ctrls.perBankRdBursts::7             93084                       # Per bank write bursts
system.mem_ctrls.perBankRdBursts::8             93156                       # Per bank write bursts
system.mem_ctrls.perBankRdBursts::9             93076                       # Per bank write bursts
system.mem_ctrls.perBankRdBursts::10            93008                       # Per bank write bursts
system.mem_ctrls.perBankRdBursts::11            92996                       # Per bank write bursts
system.mem_ctrls.perBankRdBursts::12            93056                       # Per bank write bursts
system.mem_ctrls.perBankRdBursts::13            92940                       # Per bank write bursts
system.mem_ctrls.perBankRdBursts::14            92952                       # Per bank write bursts
system.mem_ctrls.perBankRdBursts::15            93028                       # Per bank write bursts
system.mem_ctrls.perBankWrBursts::0             90900                       # Per bank write bursts
system.mem_ctrls.perBankWrBursts::1             90904                       # Per bank write bursts
system.mem_ctrls.perBankWrBursts::2             90948                       # Per bank write bursts
system.mem_ctrls.perBankWrBursts::3             91012                       # Per bank write bursts
system.mem_ctrls.perBankWrBursts::4             91008                       # Per bank write bursts
system.mem_ctrls.perBankWrBursts::5             91008                       # Per bank write bursts
system.mem_ctrls.perBankWrBursts::6             91008                       # Per bank write bursts
system.mem_ctrls.perBankWrBursts::7             91008                       # Per bank write bursts
system.mem_ctrls.perBankWrBursts::8             91008                       # Per bank write bursts
system.mem_ctrls.perBankWrBursts::9             90953                       # Per bank write bursts
system.mem_ctrls.perBankWrBursts::10            90880                       # Per bank write bursts
system.mem_ctrls.perBankWrBursts::11            90880                       # Per bank write bursts
system.mem_ctrls.perBankWrBursts::12            90880                       # Per bank write bursts
system.mem_ctrls.perBankWrBursts::13            90880                       # Per bank write bursts
system.mem_ctrls.perBankWrBursts::14            90892                       # Per bank write bursts
system.mem_ctrls.perBankWrBursts::15            90956                       # Per bank write bursts
system.mem_ctrls.avgRdQLen                       4.00                       # Average read queue length when enqueuing
system.mem_ctrls.avgWrQLen                      26.80                       # Average write queue length when enqueuing
system.mem_ctrls.totQLat                  41534082750                       # Total ticks spent queuing
system.mem_ctrls.totBusLat                 7444860000                       # Total ticks spent in databus transfers
system.mem_ctrls.totMemAccLat             69452307750                       # Total ticks spent from burst creation until serviced by the DRAM
system.mem_ctrls.avgQLat                     27894.47                       # Average queueing delay per DRAM burst
system.mem_ctrls.avgBusLat                    5000.00                       # Average bus latency per DRAM burst
system.mem_ctrls.avgMemAccLat                46644.47                       # Average memory access latency per DRAM burst
system.mem_ctrls.numRdRetry                         0                       # Number of times read queue was full causing retry
system.mem_ctrls.numWrRetry                         0                       # Number of times write queue was full causing retry
system.mem_ctrls.readRowHits                  1338775                       # Number of row buffer hits during reads
system.mem_ctrls.writeRowHits                 1309596                       # Number of row buffer hits during writes
system.mem_ctrls.readRowHitRate                 89.91                       # Row buffer hit rate for reads
system.mem_ctrls.writeRowHitRate                90.00                       # Row buffer hit rate for writes
system.mem_ctrls.readPktSize::0                     0                       # Read request sizes (log2)
system.mem_ctrls.readPktSize::1                     0                       # Read request sizes (log2)
system.mem_ctrls.readPktSize::2                     0                       # Read request sizes (log2)
system.mem_ctrls.readPktSize::3                     0                       # Read request sizes (log2)
system.mem_ctrls.readPktSize::4                     0                       # Read request sizes (log2)
system.mem_ctrls.readPktSize::5                     0                       # Read request sizes (log2)
system.mem_ctrls.readPktSize::6               1488972                       # Read request sizes (log2)
system.mem_ctrls.writePktSize::0                    0                       # Write request sizes (log2)
system.mem_ctrls.writePktSize::1                    0                       # Write request sizes (log2)
system.mem_ctrls.writePktSize::2                    0                       # Write request sizes (log2)
system.mem_ctrls.writePktSize::3                    0                       # Write request sizes (log2)
system.mem_ctrls.writePktSize::4                    0                       # Write request sizes (log2)
system.mem_ctrls.writePktSize::5                    0                       # Write request sizes (log2)
system.mem_ctrls.writePktSize::6              1455144                       # Write request sizes (log2)
system.mem_ctrls.rdQLenPdf::0                  372214                       # What read queue length does an incoming req see
system.mem_ctrls.rdQLenPdf::1                  372216                       # What read queue length does an incoming req see
system.mem_ctrls.rdQLenPdf::2                  372218                       # What read queue length does an incoming req see
system.mem_ctrls.rdQLenPdf::3                  372223                       # What read queue length does an incoming req see
system.mem_ctrls.rdQLenPdf::4                      28                       # What read queue length does an incoming req see
system.mem_ctrls.rdQLenPdf::5                      26                       # What read queue length does an incoming req see
system.mem_ctrls.rdQLenPdf::6                      25                       # What read queue length does an incoming req see
system.mem_ctrls.rdQLenPdf::7                      20                       # What read queue length does an incoming req see
system.mem_ctrls.rdQLenPdf::8                       1                       # What read queue length does an incoming req see
system.mem_ctrls.rdQLenPdf::9                       1                       # What read queue length does an incoming req see
system.mem_ctrls.rdQLenPdf::10                      0                       # What read queue length does an incoming req see
system.mem_ctrls.rdQLenPdf::11                      0                       # What read queue length does an incoming req see
system.mem_ctrls.rdQLenPdf::12                      0                       # What read queue length does an incoming req see
system.mem_ctrls.rdQLenPdf::13                      0                       # What read queue length does an incoming req see
system.mem_ctrls.rdQLenPdf::14                      0                       # What read queue length does an incoming req see
system.mem_ctrls.rdQLenPdf::15                      0                       # What read queue length does an incoming req see
system.mem_ctrls.rdQLenPdf::16                      0                       # What read queue length does an incoming req see
system.mem_ctrls.rdQLenPdf::17                      0                       # What read queue length does an incoming req see
system.mem_ctrls.rdQLenPdf::18                      0                       # What read queue length does an incoming req see
system.mem_ctrls.rdQLenPdf::19                      0                       # What read queue length does an incoming req see
system.mem_ctrls.rdQLenPdf::20                      0                       # What read queue length does an incoming req see
system.mem_ctrls.rdQLenPdf::21                      0                       # What read queue length does an incoming req see
system.mem_ctrls.rdQLenPdf::22                      0                       # What read queue length does an incoming req see
system.mem_ctrls.rdQLenPdf::23                      0                       # What read queue length does an incoming req see
system.mem_ctrls.rdQLenPdf::24                      0                       # What read queue length does an incoming req see
system.mem_ctrls.rdQLenPdf::25                      0                       # What read queue length does an incoming req see
system.mem_ctrls.rdQLenPdf::26                      0                       # What read queue length does an incoming req see
system.mem_ctrls.rdQLenPdf::27                      0                       # What read queue length does an incoming req see
system.mem_ctrls.rdQLenPdf::28                      0                       # What read queue length does an incoming req see
system.mem_ctrls.rdQLenPdf::29                      0                       # What read queue length does an incoming req see
system.mem_ctrls.rdQLenPdf::30                      0                       # What read queue length does an incoming req see
system.mem_ctrls.rdQLenPdf::31                      0                       # What read queue length does an incoming req see
system.mem_ctrls.wrQLenPdf::0                       1                       # What write queue length does an incoming req see
system.mem_ctrls.wrQLenPdf::1                       1                       # What write queue length does an incoming req see
system.mem_ctrls.wrQLenPdf::2                       1                       # What write queue length does an incoming req see
system.mem_ctrls.wrQLenPdf::3                       1                       # What write queue length does an incoming req see
system.mem_ctrls.wrQLenPdf::4                       1                       # What write queue length does an incoming req see
system.mem_ctrls.wrQLenPdf::5                       1                       # What write queue length does an incoming req see
system.mem_ctrls.wrQLenPdf::6                       1                       # What write queue length does an incoming req see
system.mem_ctrls.wrQLenPdf::7                       1                       # What write queue length does an incoming req see
system.mem_ctrls.wrQLenPdf::8                       1                       # What write queue length does an incoming req see
system.mem_ctrls.wrQLenPdf::9                       1                       # What write queue length does an incoming req see
system.mem_ctrls.wrQLenPdf::10                      1                       # What write queue length does an incoming req see
system.mem_ctrls.wrQLenPdf::11                      1                       # What write queue length does an incoming req see
system.mem_ctrls.wrQLenPdf::12                      1                       # What write queue length does an incoming req see
system.mem_ctrls.wrQLenPdf::13                      1                       # What write queue length does an incoming req see
system.mem_ctrls.wrQLenPdf::14                      1                       # What write queue length does an incoming req see
system.mem_ctrls.wrQLenPdf::15                  72743                       # What write queue length does an incoming req see
system.mem_ctrls.wrQLenPdf::16                  72743                       # What write queue length does an incoming req see
system.mem_ctrls.wrQLenPdf::17                  72747                       # What write queue length does an incoming req see
system.mem_ctrls.wrQLenPdf::18                  72749                       # What write queue length does an incoming req see
system.mem_ctrls.wrQLenPdf::19                  72761                       # What write queue length does an incoming req see
system.mem_ctrls.wrQLenPdf::20                  72761                       # What write queue length does an incoming req see
system.mem_ctrls.wrQLenPdf::21                  72761                       # What write queue length does an incoming req see
system.mem_ctrls.wrQLenPdf::22                  72760                       # What write queue length does an incoming req see
system.mem_ctrls.wrQLenPdf::23                  72759                       # What write queue length does an incoming req see
system.mem_ctrls.wrQLenPdf::24                  72760                       # What write queue length does an incoming req see
system.mem_ctrls.wrQLenPdf::25                  72760                       # What write queue length does an incoming req see
system.mem_ctrls.wrQLenPdf::26                  72760                       # What write queue length does an incoming req see
system.mem_ctrls.wrQLenPdf::27                  72760                       # What write queue length does an incoming req see
system.mem_ctrls.wrQLenPdf::28                  72759                       # What write queue length does an incoming req see
system.mem_ctrls.wrQLenPdf::29                  72759                       # What write queue length does an incoming req see
system.mem_ctrls.wrQLenPdf::30                  72759                       # What write queue length does an incoming req see
system.mem_ctrls.wrQLenPdf::31                  72759                       # What write queue length does an incoming req see
system.mem_ctrls.wrQLenPdf::32                  72759                       # What write queue length does an incoming req see
system.mem_ctrls.wrQLenPdf::33                  72755                       # What write queue length does an incoming req see
system.mem_ctrls.wrQLenPdf::34                  72754                       # What write queue length does an incoming req see
system.mem_ctrls.wrQLenPdf::35                      1                       # What write queue length does an incoming req see
system.mem_ctrls.wrQLenPdf::36                      0                       # What write queue length does an incoming req see
system.mem_ctrls.wrQLenPdf::37                      0                       # What write queue length does an incoming req see
system.mem_ctrls.wrQLenPdf::38                      0                       # What write queue length does an incoming req see
system.mem_ctrls.wrQLenPdf::39                      0                       # What write queue length does an incoming req see
system.mem_ctrls.wrQLenPdf::40                      0                       # What write queue length does an incoming req see
system.mem_ctrls.wrQLenPdf::41                      0                       # What write queue length does an incoming req see
system.mem_ctrls.wrQLenPdf::42                      0                       # What write queue length does an incoming req see
system.mem_ctrls.wrQLenPdf::43                      0                       # What write queue length does an incoming req see
system.mem_ctrls.wrQLenPdf::44                      0                       # What write queue length does an incoming req see
system.mem_ctrls.wrQLenPdf::45                      0                       # What write queue length does an incoming req see
system.mem_ctrls.wrQLenPdf::46                      0                       # What write queue length does an incoming req see
system.mem_ctrls.wrQLenPdf::47                      0                       # What write queue length does an incoming req see
system.mem_ctrls.wrQLenPdf::48                      0                       # What write queue length does an incoming req see
system.mem_ctrls.wrQLenPdf::49                      0                       # What write queue length does an incoming req see
system.mem_ctrls.wrQLenPdf::50                      0                       # What write queue length does an incoming req see
system.mem_ctrls.wrQLenPdf::51                      0                       # What write queue length does an incoming req see
system.mem_ctrls.wrQLenPdf::52                      0                       # What write queue length does an incoming req see
system.mem_ctrls.wrQLenPdf::53                      0                       # What write queue length does an incoming req see
system.mem_ctrls.wrQLenPdf::54                      0                       # What write queue length does an incoming req see
system.mem_ctrls.wrQLenPdf::55                      0                       # What write queue length does an incoming req see
system.mem_ctrls.wrQLenPdf::56                      0                       # What write queue length does an incoming req see
system.mem_ctrls.wrQLenPdf::57                      0                       # What write queue length does an incoming req see
system.mem_ctrls.wrQLenPdf::58                      0                       # What write queue length does an incoming req see
system.mem_ctrls.wrQLenPdf::59                      0                       # What write queue length does an incoming req see
system.mem_ctrls.wrQLenPdf::60                      0                       # What write queue length does an incoming req see
system.mem_ctrls.wrQLenPdf::61                      0                       # What write queue length does an incoming req see
system.mem_ctrls.wrQLenPdf::62                      0                       # What write queue length does an incoming req see
system.mem_ctrls.wrQLenPdf::63                      0                       # What write queue length does an incoming req see
system.mem_ctrls.bytesPerActivate::samples       295725                       # Bytes accessed per row activation
system.mem_ctrls.bytesPerActivate::mean    637.152598                       # Bytes accessed per row activation
system.mem_ctrls.bytesPerActivate::gmean   513.492135                       # Bytes accessed per row activation
system.mem_ctrls.bytesPerActivate::stdev   369.532003                       # Bytes accessed per row activation
system.mem_ctrls.bytesPerActivate::0-127         3425      1.16%      1.16% # Bytes accessed per row activation
system.mem_ctrls.bytesPerActivate::128-255         3424      1.16%      2.32% # Bytes accessed per row activation
system.mem_ctrls.bytesPerActivate::256-383       125312     42.37%     44.69% # Bytes accessed per row activation
system.mem_ctrls.bytesPerActivate::384-511         2280      0.77%     45.46% # Bytes accessed per row activation
system.mem_ctrls.bytesPerActivate::512-639        15953      5.39%     50.86% # Bytes accessed per row activation
system.mem_ctrls.bytesPerActivate::640-767         2275      0.77%     51.63% # Bytes accessed per row activation
system.mem_ctrls.bytesPerActivate::768-895         8223      2.78%     54.41% # Bytes accessed per row activation
system.mem_ctrls.bytesPerActivate::896-1023         3411      1.15%     55.56% # Bytes accessed per row activation
system.mem_ctrls.bytesPerActivate::1024-1151       131422     44.44%    100.00% # Bytes accessed per row activation
system.mem_ctrls.bytesPerActivate::total       295725                       # Bytes accessed per row activation
system.mem_ctrls.rdPerTurnAround::samples        72759                       # Reads before turning the bus around for writes
system.mem_ctrls.rdPerTurnAround::mean      20.464382                       # Reads before turning the bus around for writes
system.mem_ctrls.rdPerTurnAround::gmean     20.004109                       # Reads before turning the bus around for writes
system.mem_ctrls.rdPerTurnAround::stdev    116.967857                       # Reads before turning the bus around for writes
system.mem_ctrls.rdPerTurnAround::0-1023        72757    100.00%    100.00% # Reads before turning the bus around for writes
system.mem_ctrls.rdPerTurnAround::1024-2047            1      0.00%    100.00% # Reads before turning the bus around for writes
system.mem_ctrls.rdPerTurnAround::30720-31743            1      0.00%    100.00% # Reads before turning the bus around for writes
system.mem_ctrls.rdPerTurnAround::total         72759                       # Reads before turning the bus around for writes
system.mem_ctrls.wrPerTurnAround::samples        72759                       # Writes before turning the bus around for reads
system.mem_ctrls.wrPerTurnAround::mean      19.999244                       # Writes before turning the bus around for reads
system.mem_ctrls.wrPerTurnAround::gmean     19.999137                       # Writes before turning the bus around for reads
system.mem_ctrls.wrPerTurnAround::stdev      0.062362                       # Writes before turning the bus around for reads
system.mem_ctrls.wrPerTurnAround::16               12      0.02%      0.02% # Writes before turning the bus around for reads
system.mem_ctrls.wrPerTurnAround::17                1      0.00%      0.02% # Writes before turning the bus around for reads
[...]
system.cpu.icache.tags.occ_blocks::.cpu.inst   111.986137                       # Average occupied blocks per requestor
system.cpu.icache.tags.occ_percent::.cpu.inst     0.874892                       # Average percentage of cache occupancy
system.cpu.icache.tags.occ_percent::total     0.874892                       # Average percentage of cache occupancy
system.cpu.icache.tags.occ_task_id_blocks::1024          112                       # Occupied blocks per task id
system.cpu.icache.tags.age_task_id_blocks_1024::4          112                       # Occupied blocks per task id
system.cpu.icache.tags.occ_task_id_percent::1024     0.875000                       # Percentage of cache occupancy per task id
system.cpu.icache.tags.tag_accesses           5965974                       # Number of tag accesses
system.cpu.icache.tags.data_accesses          5965974                       # Number of data accesses
system.cpu.dtb.walker.pwrStateResidencyTicks::UNDEFINED  99528237000                       # Cumulative time (in ticks) in various power states
system.cpu.dtb.stage2_mmu.stage2_tlb.walker.pwrStateResidencyTicks::UNDEFINED  99528237000                       # Cumulative time (in ticks) in various power states
system.cpu.dcache.pwrStateResidencyTicks::UNDEFINED  99528237000                       # Cumulative time (in ticks) in various power states
system.cpu.dcache.demand_hits::.cpu.data     48062442                       # number of demand (read+write) hits
system.cpu.dcache.demand_hits::total         48062442                       # number of demand (read+write) hits
system.cpu.dcache.overall_hits::.cpu.data     48062482                       # number of overall hits
system.cpu.dcache.overall_hits::total        48062482                       # number of overall hits
system.cpu.dcache.demand_misses::.cpu.data       743996                       # number of demand (read+write) misses
system.cpu.dcache.demand_misses::total         743996                       # number of demand (read+write) misses
system.cpu.dcache.overall_misses::.cpu.data       744008                       # number of overall misses
system.cpu.dcache.overall_misses::total        744008                       # number of overall misses
system.cpu.dcache.demand_miss_latency::.cpu.data  79326112500                       # number of demand (read+write) miss cycles
system.cpu.dcache.demand_miss_latency::total  79326112500                       # number of demand (read+write) miss cycles
system.cpu.dcache.overall_miss_latency::.cpu.data  79326112500                       # number of overall miss cycles
system.cpu.dcache.overall_miss_latency::total  79326112500                       # number of overall miss cycles
system.cpu.dcache.demand_accesses::.cpu.data     48806438                       # number of demand (read+write) accesses
system.cpu.dcache.demand_accesses::total     48806438                       # number of demand (read+write) accesses
system.cpu.dcache.overall_accesses::.cpu.data     48806490                       # number of overall (read+write) accesses
system.cpu.dcache.overall_accesses::total     48806490                       # number of overall (read+write) accesses
system.cpu.dcache.demand_miss_rate::.cpu.data     0.015244                       # miss rate for demand accesses
system.cpu.dcache.demand_miss_rate::total     0.015244                       # miss rate for demand accesses
system.cpu.dcache.overall_miss_rate::.cpu.data     0.015244                       # miss rate for overall accesses
system.cpu.dcache.overall_miss_rate::total     0.015244                       # miss rate for overall accesses
system.cpu.dcache.demand_avg_miss_latency::.cpu.data 106621.692187                       # average overall miss latency
system.cpu.dcache.demand_avg_miss_latency::total 106621.692187                       # average overall miss latency
system.cpu.dcache.overall_avg_miss_latency::.cpu.data 106619.972500                       # average overall miss latency
system.cpu.dcache.overall_avg_miss_latency::total 106619.972500                       # average overall miss latency
system.cpu.dcache.blocked_cycles::no_mshrs            0                       # number of cycles access was blocked
system.cpu.dcache.blocked_cycles::no_targets            0                       # number of cycles access was blocked
system.cpu.dcache.blocked::no_mshrs                 0                       # number of cycles access was blocked
system.cpu.dcache.blocked::no_targets               0                       # number of cycles access was blocked
system.cpu.dcache.avg_blocked_cycles::no_mshrs          nan                       # average number of cycles each access was blocked
system.cpu.dcache.avg_blocked_cycles::no_targets          nan                       # average number of cycles each access was blocked
system.cpu.dcache.writebacks::.writebacks       371727                       # number of writebacks
system.cpu.dcache.writebacks::total            371727                       # number of writebacks
system.cpu.dcache.demand_mshr_hits::.cpu.data       371963                       # number of demand (read+write) MSHR hits
system.cpu.dcache.demand_mshr_hits::total       371963                       # number of demand (read+write) MSHR hits
system.cpu.dcache.overall_mshr_hits::.cpu.data       371963                       # number of overall MSHR hits
system.cpu.dcache.overall_mshr_hits::total       371963                       # number of overall MSHR hits
system.cpu.dcache.demand_mshr_misses::.cpu.data       372033                       # number of demand (read+write) MSHR misses
system.cpu.dcache.demand_mshr_misses::total       372033                       # number of demand (read+write) MSHR misses
system.cpu.dcache.overall_mshr_misses::.cpu.data       372039                       # number of overall MSHR misses
system.cpu.dcache.overall_mshr_misses::total       372039                       # number of overall MSHR misses
system.cpu.dcache.demand_mshr_miss_latency::.cpu.data  39721512500                       # number of demand (read+write) MSHR miss cycles
system.cpu.dcache.demand_mshr_miss_latency::total  39721512500                       # number of demand (read+write) MSHR miss cycles
system.cpu.dcache.overall_mshr_miss_latency::.cpu.data  39722144500                       # number of overall MSHR miss cycles
system.cpu.dcache.overall_mshr_miss_latency::total  39722144500                       # number of overall MSHR miss cycles
system.cpu.dcache.demand_mshr_miss_rate::.cpu.data     0.007623                       # mshr miss rate for demand accesses
system.cpu.dcache.demand_mshr_miss_rate::total     0.007623                       # mshr miss rate for demand accesses
system.cpu.dcache.overall_mshr_miss_rate::.cpu.data     0.007623                       # mshr miss rate for overall accesses
system.cpu.dcache.overall_mshr_miss_rate::total     0.007623                       # mshr miss rate for overall accesses
system.cpu.dcache.demand_avg_mshr_miss_latency::.cpu.data 106768.787984                       # average overall mshr miss latency
system.cpu.dcache.demand_avg_mshr_miss_latency::total 106768.787984                       # average overall mshr miss latency
system.cpu.dcache.overall_avg_mshr_miss_latency::.cpu.data 106768.764834                       # average overall mshr miss latency
system.cpu.dcache.overall_avg_mshr_miss_latency::total 106768.764834                       # average overall mshr miss latency
system.cpu.dcache.replacements                 371784                       # number of replacements
system.cpu.dcache.ReadReq_hits::.cpu.data     35710852                       # number of ReadReq hits
system.cpu.dcache.ReadReq_hits::total        35710852                       # number of ReadReq hits
system.cpu.dcache.ReadReq_misses::.cpu.data           69                       # number of ReadReq misses
system.cpu.dcache.ReadReq_misses::total            69                       # number of ReadReq misses
system.cpu.dcache.ReadReq_miss_latency::.cpu.data      5346500                       # number of ReadReq miss cycles
system.cpu.dcache.ReadReq_miss_latency::total      5346500                       # number of ReadReq miss cycles
system.cpu.dcache.ReadReq_accesses::.cpu.data     35710921                       # number of ReadReq accesses(hits+misses)
system.cpu.dcache.ReadReq_accesses::total     35710921                       # number of ReadReq accesses(hits+misses)
system.cpu.dcache.ReadReq_miss_rate::.cpu.data     0.000002                       # miss rate for ReadReq accesses
system.cpu.dcache.ReadReq_miss_rate::total     0.000002                       # miss rate for ReadReq accesses
system.cpu.dcache.ReadReq_avg_miss_latency::.cpu.data 77485.507246                       # average ReadReq miss latency
system.cpu.dcache.ReadReq_avg_miss_latency::total 77485.507246                       # average ReadReq miss latency
system.cpu.dcache.ReadReq_mshr_hits::.cpu.data            5                       # number of ReadReq MSHR hits
system.cpu.dcache.ReadReq_mshr_hits::total            5                       # number of ReadReq MSHR hits
system.cpu.dcache.ReadReq_mshr_misses::.cpu.data           64                       # number of ReadReq MSHR misses
system.cpu.dcache.ReadReq_mshr_misses::total           64                       # number of ReadReq MSHR misses
system.cpu.dcache.ReadReq_mshr_miss_latency::.cpu.data      4827000                       # number of ReadReq MSHR miss cycles
system.cpu.dcache.ReadReq_mshr_miss_latency::total      4827000                       # number of ReadReq MSHR miss cycles
system.cpu.dcache.ReadReq_mshr_miss_rate::.cpu.data     0.000002                       # mshr miss rate for ReadReq accesses
system.cpu.dcache.ReadReq_mshr_miss_rate::total     0.000002                       # mshr miss rate for ReadReq accesses
system.cpu.dcache.ReadReq_avg_mshr_miss_latency::.cpu.data 75421.875000                       # average ReadReq mshr miss latency
system.cpu.dcache.ReadReq_avg_mshr_miss_latency::total 75421.875000                       # average ReadReq mshr miss latency
system.cpu.dcache.WriteReq_hits::.cpu.data     12351590                       # number of WriteReq hits
system.cpu.dcache.WriteReq_hits::total       12351590                       # number of WriteReq hits
system.cpu.dcache.WriteReq_misses::.cpu.data       743927                       # number of WriteReq misses
system.cpu.dcache.WriteReq_misses::total       743927                       # number of WriteReq misses
system.cpu.dcache.WriteReq_miss_latency::.cpu.data  79320766000                       # number of WriteReq miss cycles
system.cpu.dcache.WriteReq_miss_latency::total  79320766000                       # number of WriteReq miss cycles
system.cpu.dcache.WriteReq_accesses::.cpu.data     13095517                       # number of WriteReq accesses(hits+misses)
system.cpu.dcache.WriteReq_accesses::total     13095517                       # number of WriteReq accesses(hits+misses)
system.cpu.dcache.WriteReq_miss_rate::.cpu.data     0.056808                       # miss rate for WriteReq accesses
system.cpu.dcache.WriteReq_miss_rate::total     0.056808                       # miss rate for WriteReq accesses
system.cpu.dcache.WriteReq_avg_miss_latency::.cpu.data 106624.394598                       # average WriteReq miss latency
system.cpu.dcache.WriteReq_avg_miss_latency::total 106624.394598                       # average WriteReq miss latency
system.cpu.dcache.WriteReq_mshr_hits::.cpu.data       371958                       # number of WriteReq MSHR hits
system.cpu.dcache.WriteReq_mshr_hits::total       371958                       # number of WriteReq MSHR hits
system.cpu.dcache.WriteReq_mshr_misses::.cpu.data       371969                       # number of WriteReq MSHR misses
system.cpu.dcache.WriteReq_mshr_misses::total       371969                       # number of WriteReq MSHR misses
system.cpu.dcache.WriteReq_mshr_miss_latency::.cpu.data  39716685500                       # number of WriteReq MSHR miss cycles
system.cpu.dcache.WriteReq_mshr_miss_latency::total  39716685500                       # number of WriteReq MSHR miss cycles
system.cpu.dcache.WriteReq_mshr_miss_rate::.cpu.data     0.028404                       # mshr miss rate for WriteReq accesses
system.cpu.dcache.WriteReq_mshr_miss_rate::total     0.028404                       # mshr miss rate for WriteReq accesses
system.cpu.dcache.WriteReq_avg_mshr_miss_latency::.cpu.data 106774.181451                       # average WriteReq mshr miss latency
system.cpu.dcache.WriteReq_avg_mshr_miss_latency::total 106774.181451                       # average WriteReq mshr miss latency
system.cpu.dcache.SoftPFReq_hits::.cpu.data           40                       # number of SoftPFReq hits
system.cpu.dcache.SoftPFReq_hits::total            40                       # number of SoftPFReq hits
system.cpu.dcache.SoftPFReq_misses::.cpu.data           12                       # number of SoftPFReq misses
system.cpu.dcache.SoftPFReq_misses::total           12                       # number of SoftPFReq misses
system.cpu.dcache.SoftPFReq_accesses::.cpu.data           52                       # number of SoftPFReq accesses(hits+misses)
system.cpu.dcache.SoftPFReq_accesses::total           52                       # number of SoftPFReq accesses(hits+misses)
system.cpu.dcache.SoftPFReq_miss_rate::.cpu.data     0.230769                       # miss rate for SoftPFReq accesses
system.cpu.dcache.SoftPFReq_miss_rate::total     0.230769                       # miss rate for SoftPFReq accesses
system.cpu.dcache.SoftPFReq_mshr_misses::.cpu.data            6                       # number of SoftPFReq MSHR misses
system.cpu.dcache.SoftPFReq_mshr_misses::total            6                       # number of SoftPFReq MSHR misses
system.cpu.dcache.SoftPFReq_mshr_miss_latency::.cpu.data       632000                       # number of SoftPFReq MSHR miss cycles
system.cpu.dcache.SoftPFReq_mshr_miss_latency::total       632000                       # number of SoftPFReq MSHR miss cycles
system.cpu.dcache.SoftPFReq_mshr_miss_rate::.cpu.data     0.115385                       # mshr miss rate for SoftPFReq accesses
system.cpu.dcache.SoftPFReq_mshr_miss_rate::total     0.115385                       # mshr miss rate for SoftPFReq accesses
system.cpu.dcache.SoftPFReq_avg_mshr_miss_latency::.cpu.data 105333.333333                       # average SoftPFReq mshr miss latency
system.cpu.dcache.SoftPFReq_avg_mshr_miss_latency::total 105333.333333                       # average SoftPFReq mshr miss latency
system.cpu.dcache.LoadLockedReq_hits::.cpu.data           13                       # number of LoadLockedReq hits
system.cpu.dcache.LoadLockedReq_hits::total           13                       # number of LoadLockedReq hits
system.cpu.dcache.LoadLockedReq_misses::.cpu.data            1                       # number of LoadLockedReq misses
system.cpu.dcache.LoadLockedReq_misses::total            1                       # number of LoadLockedReq misses
system.cpu.dcache.LoadLockedReq_miss_latency::.cpu.data       101000                       # number of LoadLockedReq miss cycles
system.cpu.dcache.LoadLockedReq_miss_latency::total       101000                       # number of LoadLockedReq miss cycles
system.cpu.dcache.LoadLockedReq_accesses::.cpu.data           14                       # number of LoadLockedReq accesses(hits+misses)
system.cpu.dcache.LoadLockedReq_accesses::total           14                       # number of LoadLockedReq accesses(hits+misses)
system.cpu.dcache.LoadLockedReq_miss_rate::.cpu.data     0.071429                       # miss rate for LoadLockedReq accesses
system.cpu.dcache.LoadLockedReq_miss_rate::total     0.071429                       # miss rate for LoadLockedReq accesses
system.cpu.dcache.LoadLockedReq_avg_miss_latency::.cpu.data       101000                       # average LoadLockedReq miss latency
system.cpu.dcache.LoadLockedReq_avg_miss_latency::total       101000                       # average LoadLockedReq miss latency
system.cpu.dcache.LoadLockedReq_mshr_misses::.cpu.data            1                       # number of LoadLockedReq MSHR misses
system.cpu.dcache.LoadLockedReq_mshr_misses::total            1                       # number of LoadLockedReq MSHR misses
system.cpu.dcache.LoadLockedReq_mshr_miss_latency::.cpu.data       100000                       # number of LoadLockedReq MSHR miss cycles
system.cpu.dcache.LoadLockedReq_mshr_miss_latency::total       100000                       # number of LoadLockedReq MSHR miss cycles
system.cpu.dcache.LoadLockedReq_mshr_miss_rate::.cpu.data     0.071429                       # mshr miss rate for LoadLockedReq accesses
system.cpu.dcache.LoadLockedReq_mshr_miss_rate::total     0.071429                       # mshr miss rate for LoadLockedReq accesses
system.cpu.dcache.LoadLockedReq_avg_mshr_miss_latency::.cpu.data       100000                       # average LoadLockedReq mshr miss latency
system.cpu.dcache.LoadLockedReq_avg_mshr_miss_latency::total       100000                       # average LoadLockedReq mshr miss latency
system.cpu.dcache.StoreCondReq_hits::.cpu.data           14                       # number of StoreCondReq hits
system.cpu.dcache.StoreCondReq_hits::total           14                       # number of StoreCondReq hits
system.cpu.dcache.StoreCondReq_accesses::.cpu.data           14                       # number of StoreCondReq accesses(hits+misses)
system.cpu.dcache.StoreCondReq_accesses::total           14                       # number of StoreCondReq accesses(hits+misses)
system.cpu.dcache.tags.pwrStateResidencyTicks::UNDEFINED  99528237000                       # Cumulative time (in ticks) in various power states
system.cpu.dcache.tags.tagsinuse           255.865990                       # Cycle average of tags in use
system.cpu.dcache.tags.total_refs            48434549                       # Total number of references to valid blocks.
system.cpu.dcache.tags.sampled_refs            372040                       # Sample count of references to valid blocks.
system.cpu.dcache.tags.avg_refs            130.186402                       # Average number of references to valid blocks.
system.cpu.dcache.tags.warmup_cycle            240500                       # Cycle when the warmup percentage was hit.
system.cpu.dcache.tags.occ_blocks::.cpu.data   255.865990                       # Average occupied blocks per requestor
system.cpu.dcache.tags.occ_percent::.cpu.data     0.999477                       # Average percentage of cache occupancy
system.cpu.dcache.tags.occ_percent::total     0.999477                       # Average percentage of cache occupancy
system.cpu.dcache.tags.occ_task_id_blocks::1024          256                       # Occupied blocks per task id
system.cpu.dcache.tags.age_task_id_blocks_1024::0           37                       # Occupied blocks per task id
system.cpu.dcache.tags.age_task_id_blocks_1024::1          216                       # Occupied blocks per task id
system.cpu.dcache.tags.age_task_id_blocks_1024::4            3                       # Occupied blocks per task id
system.cpu.dcache.tags.occ_task_id_percent::1024            1                       # Percentage of cache occupancy per task id
system.cpu.dcache.tags.tag_accesses          97985076                       # Number of tag accesses
system.cpu.dcache.tags.data_accesses         97985076                       # Number of data accesses
system.cpu.itb.walker.pwrStateResidencyTicks::UNDEFINED  99528237000                       # Cumulative time (in ticks) in various power states
system.cpu.itb.stage2_mmu.stage2_tlb.walker.pwrStateResidencyTicks::UNDEFINED  99528237000                       # Cumulative time (in ticks) in various power states

---------- End Simulation Statistics   ----------
