
---------- Begin Simulation Statistics ----------
final_tick                               109012881000                       # Number of ticks from beginning of simulation (restored from checkpoints and never reset)
host_inst_rate                                 181038                       # Simulator instruction rate (inst/s)
host_mem_usage                                 724400                       # Number of bytes of host memory used
host_op_rate                                   197584                       # Simulator op (including micro ops) rate (op/s)
host_seconds                                   552.37                       # Real time elapsed on the host
host_tick_rate                              197355095                       # Simulator tick rate (ticks/s)
sim_freq                                 1000000000000                       # Frequency of simulated ticks
sim_insts                                   100000000                       # Number of instructions simulated
sim_ops                                     109139424                       # Number of ops (including micro ops) simulated
sim_seconds                                  0.109013                       # Number of seconds simulated
sim_ticks                                109012881000                       # Number of ticks simulated
system.cpu.branchPred.BTBCorrect                    0                       # Number of correct BTB predictions (this stat may not work properly.
system.cpu.branchPred.BTBHitPct             92.963798                       # BTB Hit Percentage
system.cpu.branchPred.BTBHits                 8062977                       # Number of BTB hits
system.cpu.branchPred.BTBLookups              8673244                       # Number of BTB lookups
system.cpu.branchPred.RASInCorrect                482                       # Number of incorrect RAS predictions.
system.cpu.branchPred.condIncorrect             88892                       # Number of conditional branches incorrect
system.cpu.branchPred.condPredicted          15819089                       # Number of conditional branches predicted
system.cpu.branchPred.indirectHits             287881                       # Number of indirect target hits.
system.cpu.branchPred.indirectLookups          551105                       # Number of indirect predictor lookups.
system.cpu.branchPred.indirectMisses           263224                       # Number of indirect misses.
system.cpu.branchPred.lookups                19659514                       # Number of BP lookups
system.cpu.branchPred.usedRAS                 1050622                       # Number of times the RAS was used to get a target.
system.cpu.branchPredindirectMispredicted          986                       # Number of mispredicted indirect branches.
system.cpu.committedInsts                   100000000                       # Number of instructions committed
system.cpu.committedOps                     109139424                       # Number of ops (including micro ops) committed
system.cpu.cpi                               1.090129                       # CPI: cycles per instruction
system.cpu.discardedOps                        430658                       # Number of ops (including micro ops) which were discarded before commit
system.cpu.dtb.accesses                             0                       # DTB accesses
system.cpu.dtb.align_faults                         0                       # Number of TLB faults due to alignment restrictions
system.cpu.dtb.domain_faults                        0                       # Number of TLB faults due to domain restrictions
system.cpu.dtb.flush_entries                        0                       # Number of entries that have been flushed from TLB
system.cpu.dtb.flush_tlb                            0                       # Number of times complete TLB was flushed
system.cpu.dtb.flush_tlb_asid                       0                       # Number of times TLB was flushed by ASID
system.cpu.dtb.flush_tlb_mva                        0                       # Number of times TLB was flushed by MVA
system.cpu.dtb.flush_tlb_mva_asid                   0                       # Number of times TLB was flushed by MVA & ASID
system.cpu.dtb.hits                                 0                       # DTB hits
system.cpu.dtb.inst_accesses                        0                       # ITB inst accesses
system.cpu.dtb.inst_hits                            0                       # ITB inst hits
system.cpu.dtb.inst_misses                          0                       # ITB inst misses
system.cpu.dtb.misses                               0                       # DTB misses
system.cpu.dtb.perms_faults                         0                       # Number of TLB faults due to permissions restrictions
system.cpu.dtb.prefetch_faults                      0                       # Number of TLB faults due to prefetch
system.cpu.dtb.read_accesses                        0                       # DTB read accesses
system.cpu.dtb.read_hits                            0                       # DTB read hits
system.cpu.dtb.read_misses                          0                       # DTB read misses
system.cpu.dtb.stage2_mmu.stage2_tlb.accesses            0                       # DTB accesses
system.cpu.dtb.stage2_mmu.stage2_tlb.align_faults            0                       # Number of TLB faults due to alignment restrictions
system.cpu.dtb.stage2_mmu.stage2_tlb.domain_faults            0                       # Number of TLB faults due to domain restrictions
system.cpu.dtb.stage2_mmu.stage2_tlb.flush_entries            0                       # Number of entries that have been flushed from TLB
system.cpu.dtb.stage2_mmu.stage2_tlb.flush_tlb            0                       # Number of times complete TLB was flushed
system.cpu.dtb.stage2_mmu.stage2_tlb.flush_tlb_asid            0                       # Number of times TLB was flushed by ASID
system.cpu.dtb.stage2_mmu.stage2_tlb.flush_tlb_mva            0                       # Number of times TLB was flushed by MVA
system.cpu.dtb.stage2_mmu.stage2_tlb.flush_tlb_mva_asid            0                       # Number of times TLB was flushed by MVA & ASID
system.cpu.dtb.stage2_mmu.stage2_tlb.hits            0                       # DTB hits
system.cpu.dtb.stage2_mmu.stage2_tlb.inst_accesses            0                       # ITB inst accesses
system.cpu.dtb.stage2_mmu.stage2_tlb.inst_hits            0                       # ITB inst hits
system.cpu.dtb.stage2_mmu.stage2_tlb.inst_misses            0                       # ITB inst misses
system.cpu.dtb.stage2_mmu.stage2_tlb.misses            0                       # DTB misses
system.cpu.dtb.stage2_mmu.stage2_tlb.perms_faults            0                       # Number of TLB faults due to permissions restrictions
system.cpu.dtb.stage2_mmu.stage2_tlb.prefetch_faults            0                       # Number of TLB faults due to prefetch
system.cpu.dtb.stage2_mmu.stage2_tlb.read_accesses            0                       # DTB read accesses
system.cpu.dtb.stage2_mmu.stage2_tlb.read_hits            0                       # DTB read hits
system.cpu.dtb.stage2_mmu.stage2_tlb.read_misses            0                       # DTB read misses
system.cpu.dtb.stage2_mmu.stage2_tlb.walker.walkRequestOrigin_Requested::Data            0                       # Table walker requests started/completed, data/inst
system.cpu.dtb.stage2_mmu.stage2_tlb.walker.walkRequestOrigin_Requested::Inst            0                       # Table walker requests started/completed, data/inst
system.cpu.dtb.stage2_mmu.stage2_tlb.walker.walkRequestOrigin_Requested::total            0                       # Table walker requests started/completed, data/inst
system.cpu.dtb.stage2_mmu.stage2_tlb.walker.walkRequestOrigin_Completed::Data            0                       # Table walker requests started/completed, data/inst
system.cpu.dtb.stage2_mmu.stage2_tlb.walker.walkRequestOrigin_Completed::Inst            0                       # Table walker requests started/completed, data/inst
system.cpu.dtb.stage2_mmu.stage2_tlb.walker.walkRequestOrigin_Completed::total            0                       # Table walker requests started/completed, data/inst
system.cpu.dtb.stage2_mmu.stage2_tlb.walker.walkRequestOrigin::total            0                       # Table walker requests started/completed, data/inst
system.cpu.dtb.stage2_mmu.stage2_tlb.walker.walks            0                       # Table walker walks requested
system.cpu.dtb.stage2_mmu.stage2_tlb.write_accesses            0                       # DTB write accesses
system.cpu.dtb.stage2_mmu.stage2_tlb.write_hits            0                       # DTB write hits
system.cpu.dtb.stage2_mmu.stage2_tlb.write_misses            0                       # DTB write misses
system.cpu.dtb.walker.walkRequestOrigin_Requested::Data            0                       # Table walker requests started/completed, data/inst
system.cpu.dtb.walker.walkRequestOrigin_Requested::Inst            0                       # Table walker requests started/completed, data/inst
system.cpu.dtb.walker.walkRequestOrigin_Requested::total            0                       # Table walker requests started/completed, data/inst
system.cpu.dtb.walker.walkRequestOrigin_Completed::Data            0                       # Table walker requests started/completed, data/inst
system.cpu.dtb.walker.walkRequestOrigin_Completed::Inst            0                       # Table walker requests started/completed, data/inst
system.cpu.dtb.walker.walkRequestOrigin_Completed::total            0                       # Table walker requests started/completed, data/inst
system.cpu.dtb.walker.walkRequestOrigin::total            0                       # Table walker requests started/completed, data/inst
system.cpu.dtb.walker.walks                         0                       # Table walker walks requested
system.cpu.dtb.write_accesses                       0                       # DTB write accesses
system.cpu.dtb.write_hits                           0                       # DTB write hits
system.cpu.dtb.write_misses                         0                       # DTB write misses
system.cpu.fetch2.amo_instructions                  0                       # Number of memory atomic instructions successfully decoded
system.cpu.fetch2.fp_instructions                   0                       # Number of floating point instructions successfully decoded
system.cpu.fetch2.int_instructions           49083149                       # Number of integer instructions successfully decoded
system.cpu.fetch2.load_instructions          17523818                       # Number of memory load instructions successfully decoded
system.cpu.fetch2.store_instructions         10083676                       # Number of memory store instructions successfully decoded
system.cpu.fetch2.vec_instructions                  0                       # Number of SIMD instructions successfully decoded
system.cpu.idleCycles                         2451733                       # Total number of cycles that the object has spent stopped
system.cpu.ipc                               0.917323                       # IPC: instructions per cycle
system.cpu.itb.accesses                             0                       # DTB accesses
system.cpu.itb.align_faults                         0                       # Number of TLB faults due to alignment restrictions
system.cpu.itb.domain_faults                        0                       # Number of TLB faults due to domain restrictions
system.cpu.itb.flush_entries                        0                       # Number of entries that have been flushed from TLB
system.cpu.itb.flush_tlb                            0                       # Number of times complete TLB was flushed
system.cpu.itb.flush_tlb_asid                       0                       # Number of times TLB was flushed by ASID
system.cpu.itb.flush_tlb_mva                        0                       # Number of times TLB was flushed by MVA
system.cpu.itb.flush_tlb_mva_asid                   0                       # Number of times TLB was flushed by MVA & ASID
system.cpu.itb.hits                                 0                       # DTB hits
system.cpu.itb.inst_accesses                        0                       # ITB inst accesses
system.cpu.itb.inst_hits                            0                       # ITB inst hits
system.cpu.itb.inst_misses                          0                       # ITB inst misses
system.cpu.itb.misses                               0                       # DTB misses
system.cpu.itb.perms_faults                         0                       # Number of TLB faults due to permissions restrictions
system.cpu.itb.prefetch_faults                      0                       # Number of TLB faults due to prefetch
system.cpu.itb.read_accesses                        0                       # DTB read accesses
system.cpu.itb.read_hits                            0                       # DTB read hits
system.cpu.itb.read_misses                          0                       # DTB read misses
system.cpu.itb.stage2_mmu.stage2_tlb.accesses            0                       # DTB accesses
system.cpu.itb.stage2_mmu.stage2_tlb.align_faults            0                       # Number of TLB faults due to alignment restrictions
system.cpu.itb.stage2_mmu.stage2_tlb.domain_faults            0                       # Number of TLB faults due to domain restrictions
system.cpu.itb.stage2_mmu.stage2_tlb.flush_entries            0                       # Number of entries that have been flushed from TLB
system.cpu.itb.stage2_mmu.stage2_tlb.flush_tlb            0                       # Number of times complete TLB was flushed
system.cpu.itb.stage2_mmu.stage2_tlb.flush_tlb_asid            0                       # Number of times TLB was flushed by ASID
system.cpu.itb.stage2_mmu.stage2_tlb.flush_tlb_mva            0                       # Number of times TLB was flushed by MVA
system.cpu.itb.stage2_mmu.stage2_tlb.flush_tlb_mva_asid            0                       # Number of times TLB was flushed by MVA & ASID
system.cpu.itb.stage2_mmu.stage2_tlb.hits            0                       # DTB hits
system.cpu.itb.stage2_mmu.stage2_tlb.inst_accesses            0                       # ITB inst accesses
system.cpu.itb.stage2_mmu.stage2_tlb.inst_hits            0                       # ITB inst hits
system.cpu.itb.stage2_mmu.stage2_tlb.inst_misses            0                       # ITB inst misses
system.cpu.itb.stage2_mmu.stage2_tlb.misses            0                       # DTB misses
system.cpu.itb.stage2_mmu.stage2_tlb.perms_faults            0                       # Number of TLB faults due to permissions restrictions
system.cpu.itb.stage2_mmu.stage2_tlb.prefetch_faults            0                       # Number of TLB faults due to prefetch
system.cpu.itb.stage2_mmu.stage2_tlb.read_accesses            0                       # DTB read accesses
system.cpu.itb.stage2_mmu.stage2_tlb.read_hits            0                       # DTB read hits
system.cpu.itb.stage2_mmu.stage2_tlb.read_misses            0                       # DTB read misses
system.cpu.itb.stage2_mmu.stage2_tlb.walker.walkRequestOrigin_Requested::Data            0                       # Table walker requests started/completed, data/inst
system.cpu.itb.stage2_mmu.stage2_tlb.walker.walkRequestOrigin_Requested::Inst            0                       # Table walker requests started/completed, data/inst
system.cpu.itb.stage2_mmu.stage2_tlb.walker.walkRequestOrigin_Requested::total            0                       # Table walker requests started/completed, data/inst
system.cpu.itb.stage2_mmu.stage2_tlb.walker.walkRequestOrigin_Completed::Data            0                       # Table walker requests started/completed, data/inst
system.cpu.itb.stage2_mmu.stage2_tlb.walker.walkRequestOrigin_Completed::Inst            0                       # Table walker requests started/completed, data/inst
system.cpu.itb.stage2_mmu.stage2_tlb.walker.walkRequestOrigin_Completed::total            0                       # Table walker requests started/completed, data/inst
system.cpu.itb.stage2_mmu.stage2_tlb.walker.walkRequestOrigin::total            0                       # Table walker requests started/completed, data/inst
system.cpu.itb.stage2_mmu.stage2_tlb.walker.walks            0                       # Table walker walks requested
system.cpu.itb.stage2_mmu.stage2_tlb.write_accesses            0                       # DTB write accesses
system.cpu.itb.stage2_mmu.stage2_tlb.write_hits            0                       # DTB write hits
system.cpu.itb.stage2_mmu.stage2_tlb.write_misses            0                       # DTB write misses
system.cpu.itb.walker.walkRequestOrigin_Requested::Data            0                       # Table walker requests started/completed, data/inst
system.cpu.itb.walker.walkRequestOrigin_Requested::Inst            0                       # Table walker requests started/completed, data/inst
system.cpu.itb.walker.walkRequestOrigin_Requested::total            0                       # Table walker requests started/completed, data/inst
system.cpu.itb.walker.walkRequestOrigin_Completed::Data            0                       # Table walker requests started/completed, data/inst
system.cpu.itb.walker.walkRequestOrigin_Completed::Inst            0                       # Table walker requests started/completed, data/inst
system.cpu.itb.walker.walkRequestOrigin_Completed::total            0                       # Table walker requests started/completed, data/inst
system.cpu.itb.walker.walkRequestOrigin::total            0                       # Table walker requests started/completed, data/inst
system.cpu.itb.walker.walks                         0                       # Table walker walks requested
system.cpu.itb.write_accesses                       0                       # DTB write accesses
system.cpu.itb.write_hits                           0                       # DTB write hits
system.cpu.itb.write_misses                         0                       # DTB write misses
system.cpu.numCycles                        109012881                       # number of cpu cycles simulated
system.cpu.numFetchSuspends                         0                       # Number of times Execute suspended instruction fetching
system.cpu.numWorkItemsCompleted                    0                       # number of work items this cpu completed
system.cpu.numWorkItemsStarted                      0                       # number of work items this cpu started
system.cpu.op_class_0::No_OpClass                   0      0.00%      0.00% # Class of committed instruction
system.cpu.op_class_0::IntAlu                72223173     66.18%     66.18% # Class of committed instruction
system.cpu.op_class_0::IntMult                 547032      0.50%     66.68% # Class of committed instruction
system.cpu.op_class_0::IntDiv                       0      0.00%     66.68% # Class of committed instruction
system.cpu.op_class_0::FloatAdd                     0      0.00%     66.68% # Class of committed instruction
system.cpu.op_class_0::FloatCmp                     0      0.00%     66.68% # Class of committed instruction
system.cpu.op_class_0::FloatCvt                     0      0.00%     66.68% # Class of committed instruction
system.cpu.op_class_0::FloatMult                    0      0.00%     66.68% # Class of committed instruction
system.cpu.op_class_0::FloatMultAcc                 0      0.00%     66.68% # Class of committed instruction
system.cpu.op_class_0::FloatDiv                     0      0.00%     66.68% # Class of committed instruction
system.cpu.op_class_0::FloatMisc                    0      0.00%     66.68% # Class of committed instruction
system.cpu.op_class_0::FloatSqrt                    0      0.00%     66.68% # Class of committed instruction
system.cpu.op_class_0::SimdAdd                 231656      0.21%     66.89% # Class of committed instruction
system.cpu.op_class_0::SimdAddAcc                   0      0.00%     66.89% # Class of committed instruction
system.cpu.op_class_0::SimdAlu                 148482      0.14%     67.02% # Class of committed instruction
system.cpu.op_class_0::SimdCmp                 115828      0.11%     67.13% # Class of committed instruction
system.cpu.op_class_0::SimdCvt                      0      0.00%     67.13% # Class of committed instruction
system.cpu.op_class_0::SimdMisc                 42808      0.04%     67.17% # Class of committed instruction
system.cpu.op_class_0::SimdMult                     0      0.00%     67.17% # Class of committed instruction
system.cpu.op_class_0::SimdMultAcc                  0      0.00%     67.17% # Class of committed instruction
system.cpu.op_class_0::SimdShift                    0      0.00%     67.17% # Class of committed instruction
system.cpu.op_class_0::SimdShiftAcc                 0      0.00%     67.17% # Class of committed instruction
system.cpu.op_class_0::SimdDiv                      0      0.00%     67.17% # Class of committed instruction
system.cpu.op_class_0::SimdSqrt                     0      0.00%     67.17% # Class of committed instruction
system.cpu.op_class_0::SimdFloatAdd                 0      0.00%     67.17% # Class of committed instruction
system.cpu.op_class_0::SimdFloatAlu                 0      0.00%     67.17% # Class of committed instruction
system.cpu.op_class_0::SimdFloatCmp                 0      0.00%     67.17% # Class of committed instruction
system.cpu.op_class_0::SimdFloatCvt                 0      0.00%     67.17% # Class of committed instruction
system.cpu.op_class_0::SimdFloatDiv                 0      0.00%     67.17% # Class of committed instruction
system.cpu.op_class_0::SimdFloatMisc           159857      0.15%     67.32% # Class of committed instruction
system.cpu.op_class_0::SimdFloatMult                0      0.00%     67.32% # Class of committed instruction
system.cpu.op_class_0::SimdFloatMultAcc             0      0.00%     67.32% # Class of committed instruction
system.cpu.op_class_0::SimdFloatSqrt                0      0.00%     67.32% # Class of committed instruction
system.cpu.op_class_0::SimdReduceAdd                0      0.00%     67.32% # Class of committed instruction
system.cpu.op_class_0::SimdReduceAlu                0      0.00%     67.32% # Class of committed instruction
system.cpu.op_class_0::SimdReduceCmp                0      0.00%     67.32% # Class of committed instruction
system.cpu.op_class_0::SimdFloatReduceAdd            0      0.00%     67.32% # Class of committed instruction
system.cpu.op_class_0::SimdFloatReduceCmp            0      0.00%     67.32% # Class of committed instruction
system.cpu.op_class_0::SimdAes                      0      0.00%     67.32% # Class of committed instruction
system.cpu.op_class_0::SimdAesMix                   0      0.00%     67.32% # Class of committed instruction
system.cpu.op_class_0::SimdSha1Hash                 0      0.00%     67.32% # Class of committed instruction
system.cpu.op_class_0::SimdSha1Hash2                0      0.00%     67.32% # Class of committed instruction
system.cpu.op_class_0::SimdSha256Hash               0      0.00%     67.32% # Class of committed instruction
system.cpu.op_class_0::SimdSha256Hash2              0      0.00%     67.32% # Class of committed instruction
system.cpu.op_class_0::SimdShaSigma2                0      0.00%     67.32% # Class of committed instruction
system.cpu.op_class_0::SimdShaSigma3                0      0.00%     67.32% # Class of committed instruction
system.cpu.op_class_0::SimdPredAlu                  0      0.00%     67.32% # Class of committed instruction
system.cpu.op_class_0::MemRead               20932798     19.18%     86.50% # Class of committed instruction
system.cpu.op_class_0::MemWrite              14737790     13.50%    100.00% # Class of committed instruction
system.cpu.op_class_0::FloatMemRead                 0      0.00%    100.00% # Class of committed instruction
system.cpu.op_class_0::FloatMemWrite                0      0.00%    100.00% # Class of committed instruction
system.cpu.op_class_0::IprAccess                    0      0.00%    100.00% # Class of committed instruction
system.cpu.op_class_0::InstPrefetch                 0      0.00%    100.00% # Class of committed instruction
system.cpu.op_class_0::total                109139424                       # Class of committed instruction
system.cpu.tickCycles                       106561148                       # Number of cycles that the object actually ticked
system.cpu.workload.numSyscalls                    85                       # Number of system calls
system.membus.snoop_filter.hit_multi_requests            0                       # Number of requests hitting in the snoop filter with multiple (>1) holders of the requested data.
system.membus.snoop_filter.hit_multi_snoops            0                       # Number of snoops hitting in the snoop filter with multiple (>1) holders of the requested data.
system.membus.snoop_filter.hit_single_requests         5555                       # Number of requests hitting in the snoop filter with a single holder of the requested data.
system.membus.snoop_filter.hit_single_snoops            0                       # Number of snoops hitting in the snoop filter with a single holder of the requested data.
system.membus.snoop_filter.tot_requests         44383                       # Total number of requests made to the snoop filter.
system.membus.snoop_filter.tot_snoops               0                       # Total number of snoops made to the snoop filter.
system.tol2bus.snoop_filter.hit_multi_requests           14                       # Number of requests hitting in the snoop filter with multiple (>1) holders of the requested data.
system.tol2bus.snoop_filter.hit_multi_snoops            2                       # Number of snoops hitting in the snoop filter with multiple (>1) holders of the requested data.
system.tol2bus.snoop_filter.hit_single_requests        47220                       # Number of requests hitting in the snoop filter with a single holder of the requested data.
system.tol2bus.snoop_filter.hit_single_snoops          503                       # Number of snoops hitting in the snoop filter with a single holder of the requested data.
system.tol2bus.snoop_filter.tot_requests        96967                       # Total number of requests made to the snoop filter.
system.tol2bus.snoop_filter.tot_snoops            505                       # Total number of snoops made to the snoop filter.
system.membus.pwrStateResidencyTicks::UNDEFINED 109012881000                       # Cumulative time (in ticks) in various power states
system.membus.trans_dist::ReadResp                888                       # Transaction distribution
system.membus.trans_dist::WritebackDirty         5477                       # Transaction distribution
system.membus.trans_dist::CleanEvict               78                       # Transaction distribution
system.membus.trans_dist::ReadExReq             37940                       # Transaction distribution
system.membus.trans_dist::ReadExResp            37940                       # Transaction distribution
system.membus.trans_dist::ReadSharedReq           888                       # Transaction distribution
system.membus.pkt_count_system.l2.mem_side::system.mem_ctrls.port        83211                       # Packet count per connected master and slave (bytes)
system.membus.pkt_count::total                  83211                       # Packet count per connected master and slave (bytes)
system.membus.pkt_size_system.l2.mem_side::system.mem_ctrls.port      2835520                       # Cumulative packet size per connected master and slave (bytes)
system.membus.pkt_size::total                 2835520                       # Cumulative packet size per connected master and slave (bytes)
system.membus.snoops                                0                       # Total snoops (count)
system.membus.snoopTraffic                          0                       # Total snoop traffic (bytes)
system.membus.snoop_fanout::samples             38828                       # Request fanout histogram
system.membus.snoop_fanout::mean                    0                       # Request fanout histogram
system.membus.snoop_fanout::stdev                   0                       # Request fanout histogram
system.membus.snoop_fanout::underflows              0      0.00%      0.00% # Request fanout histogram
system.membus.snoop_fanout::0                   38828    100.00%    100.00% # Request fanout histogram
system.membus.snoop_fanout::1                       0      0.00%    100.00% # Request fanout histogram
system.membus.snoop_fanout::overflows               0      0.00%    100.00% # Request fanout histogram
system.membus.snoop_fanout::min_value               0                       # Request fanout histogram
system.membus.snoop_fanout::max_value               0                       # Request fanout histogram
system.membus.snoop_fanout::total               38828                       # Request fanout histogram
system.membus.respLayer1.occupancy          208612250                       # Layer occupancy (ticks)
system.membus.respLayer1.utilization              0.2                       # Layer utilization (%)
system.membus.reqLayer0.occupancy            66291000                       # Layer occupancy (ticks)
system.membus.reqLayer0.utilization               0.1                       # Layer utilization (%)
system.tol2bus.pwrStateResidencyTicks::UNDEFINED 109012881000                       # Cumulative time (in ticks) in various power states
system.tol2bus.trans_dist::ReadResp             11801                       # Transaction distribution
system.tol2bus.trans_dist::WritebackDirty        51165                       # Transaction distribution
system.tol2bus.trans_dist::WritebackClean           38                       # Transaction distribution
system.tol2bus.trans_dist::CleanEvict            2075                       # Transaction distribution
system.tol2bus.trans_dist::ReadExReq            37948                       # Transaction distribution
system.tol2bus.trans_dist::ReadExResp           37948                       # Transaction distribution
system.tol2bus.trans_dist::ReadCleanReq           521                       # Transaction distribution
system.tol2bus.trans_dist::ReadSharedReq        11280                       # Transaction distribution
system.tol2bus.pkt_count_system.cpu.icache.mem_side::system.l2.cpu_side         1080                       # Packet count per connected master and slave (bytes)
system.tol2bus.pkt_count_system.cpu.dcache.mem_side::system.l2.cpu_side       145636                       # Packet count per connected master and slave (bytes)
system.tol2bus.pkt_count::total                146716                       # Packet count per connected master and slave (bytes)
system.tol2bus.pkt_size_system.cpu.icache.mem_side::system.l2.cpu_side        35776                       # Cumulative packet size per connected master and slave (bytes)
system.tol2bus.pkt_size_system.cpu.dcache.mem_side::system.l2.cpu_side      6074624                       # Cumulative packet size per connected master and slave (bytes)
system.tol2bus.pkt_size::total                6110400                       # Cumulative packet size per connected master and slave (bytes)
system.tol2bus.snoops                            6060                       # Total snoops (count)
system.tol2bus.snoopTraffic                    350528                       # Total snoop traffic (bytes)
system.tol2bus.snoop_fanout::samples            55809                       # Request fanout histogram
system.tol2bus.snoop_fanout::mean            0.009371                       # Request fanout histogram
system.tol2bus.snoop_fanout::stdev           0.096723                       # Request fanout histogram
system.tol2bus.snoop_fanout::underflows             0      0.00%      0.00% # Request fanout histogram
system.tol2bus.snoop_fanout::0                  55288     99.07%     99.07% # Request fanout histogram
system.tol2bus.snoop_fanout::1                    519      0.93%    100.00% # Request fanout histogram
system.tol2bus.snoop_fanout::2                      2      0.00%    100.00% # Request fanout histogram
system.tol2bus.snoop_fanout::overflows              0      0.00%    100.00% # Request fanout histogram
system.tol2bus.snoop_fanout::min_value              0                       # Request fanout histogram
system.tol2bus.snoop_fanout::max_value              2                       # Request fanout histogram
system.tol2bus.snoop_fanout::total              55809                       # Request fanout histogram
system.tol2bus.reqLayer0.occupancy          188419000                       # Layer occupancy (ticks)
system.tol2bus.reqLayer0.utilization              0.2                       # Layer utilization (%)
system.tol2bus.respLayer1.occupancy         147684999                       # Layer occupancy (ticks)
system.tol2bus.respLayer1.utilization             0.1                       # Layer utilization (%)
system.tol2bus.respLayer0.occupancy           1563999                       # Layer occupancy (ticks)
system.tol2bus.respLayer0.utilization             0.0                       # Layer utilization (%)
system.voltage_domain.voltage                       1                       # Voltage in Volts
system.clk_domain.clock                          1000                       # Clock period in ticks
system.l2.pwrStateResidencyTicks::UNDEFINED 109012881000                       # Cumulative time (in ticks) in various power states
system.l2.demand_hits::.cpu.inst                   14                       # number of demand (read+write) hits
system.l2.demand_hits::.cpu.data                10905                       # number of demand (read+write) hits
system.l2.demand_hits::total                    10919                       # number of demand (read+write) hits
system.l2.overall_hits::.cpu.inst                  14                       # number of overall hits
system.l2.overall_hits::.cpu.data               10905                       # number of overall hits
system.l2.overall_hits::total                   10919                       # number of overall hits
system.l2.demand_misses::.cpu.inst                507                       # number of demand (read+write) misses
system.l2.demand_misses::.cpu.data              38323                       # number of demand (read+write) misses
system.l2.demand_misses::total                  38830                       # number of demand (read+write) misses
system.l2.overall_misses::.cpu.inst               507                       # number of overall misses
system.l2.overall_misses::.cpu.data             38323                       # number of overall misses
system.l2.overall_misses::total                 38830                       # number of overall misses
system.l2.demand_miss_latency::.cpu.inst     48534000                       # number of demand (read+write) miss cycles
system.l2.demand_miss_latency::.cpu.data   4107195000                       # number of demand (read+write) miss cycles
system.l2.demand_miss_latency::total       4155729000                       # number of demand (read+write) miss cycles
system.l2.overall_miss_latency::.cpu.inst     48534000                       # number of overall miss cycles
system.l2.overall_miss_latency::.cpu.data   4107195000                       # number of overall miss cycles
system.l2.overall_miss_latency::total      4155729000                       # number of overall miss cycles
system.l2.demand_accesses::.cpu.inst              521                       # number of demand (read+write) accesses
system.l2.demand_accesses::.cpu.data            49228                       # number of demand (read+write) accesses
system.l2.demand_accesses::total                49749                       # number of demand (read+write) accesses
system.l2.overall_accesses::.cpu.inst             521                       # number of overall (read+write) accesses
system.l2.overall_accesses::.cpu.data           49228                       # number of overall (read+write) accesses
system.l2.overall_accesses::total               49749                       # number of overall (read+write) accesses
system.l2.demand_miss_rate::.cpu.inst        0.973129                       # miss rate for demand accesses
system.l2.demand_miss_rate::.cpu.data        0.778480                       # miss rate for demand accesses
system.l2.demand_miss_rate::total            0.780518                       # miss rate for demand accesses
system.l2.overall_miss_rate::.cpu.inst       0.973129                       # miss rate for overall accesses
system.l2.overall_miss_rate::.cpu.data       0.778480                       # miss rate for overall accesses
system.l2.overall_miss_rate::total           0.780518                       # miss rate for overall accesses
system.l2.demand_avg_miss_latency::.cpu.inst 95727.810651                       # average overall miss latency
system.l2.demand_avg_miss_latency::.cpu.data 107173.107533                       # average overall miss latency
system.l2.demand_avg_miss_latency::total 107023.667268                       # average overall miss latency
system.l2.overall_avg_miss_latency::.cpu.inst 95727.810651                       # average overall miss latency
system.l2.overall_avg_miss_latency::.cpu.data 107173.107533                       # average overall miss latency
system.l2.overall_avg_miss_latency::total 107023.667268                       # average overall miss latency
system.l2.blocked_cycles::no_mshrs                  0                       # number of cycles access was blocked
system.l2.blocked_cycles::no_targets                0                       # number of cycles access was blocked
system.l2.blocked::no_mshrs                         0                       # number of cycles access was blocked
system.l2.blocked::no_targets                       0                       # number of cycles access was blocked
system.l2.avg_blocked_cycles::no_mshrs            nan                       # average number of cycles each access was blocked
system.l2.avg_blocked_cycles::no_targets          nan                       # average number of cycles each access was blocked
system.l2.writebacks::.writebacks                5477                       # number of writebacks
system.l2.writebacks::total                      5477                       # number of writebacks
system.l2.demand_mshr_hits::.cpu.inst               1                       # number of demand (read+write) MSHR hits
system.l2.demand_mshr_hits::.cpu.data               1                       # number of demand (read+write) MSHR hits
system.l2.demand_mshr_hits::total                   2                       # number of demand (read+write) MSHR hits
system.l2.overall_mshr_hits::.cpu.inst              1                       # number of overall MSHR hits
system.l2.overall_mshr_hits::.cpu.data              1                       # number of overall MSHR hits
system.l2.overall_mshr_hits::total                  2                       # number of overall MSHR hits
system.l2.demand_mshr_misses::.cpu.inst           506                       # number of demand (read+write) MSHR misses
system.l2.demand_mshr_misses::.cpu.data         38322                       # number of demand (read+write) MSHR misses
system.l2.demand_mshr_misses::total             38828                       # number of demand (read+write) MSHR misses
system.l2.overall_mshr_misses::.cpu.inst          506                       # number of overall MSHR misses
system.l2.overall_mshr_misses::.cpu.data        38322                       # number of overall MSHR misses
system.l2.overall_mshr_misses::total            38828                       # number of overall MSHR misses
system.l2.demand_mshr_miss_latency::.cpu.inst     38340000                       # number of demand (read+write) MSHR miss cycles
system.l2.demand_mshr_miss_latency::.cpu.data   3340668000                       # number of demand (read+write) MSHR miss cycles
system.l2.demand_mshr_miss_latency::total   3379008000                       # number of demand (read+write) MSHR miss cycles
system.l2.overall_mshr_miss_latency::.cpu.inst     38340000                       # number of overall MSHR miss cycles
system.l2.overall_mshr_miss_latency::.cpu.data   3340668000                       # number of overall MSHR miss cycles
system.l2.overall_mshr_miss_latency::total   3379008000                       # number of overall MSHR miss cycles
system.l2.demand_mshr_miss_rate::.cpu.inst     0.971209                       # mshr miss rate for demand accesses
system.l2.demand_mshr_miss_rate::.cpu.data     0.778459                       # mshr miss rate for demand accesses
system.l2.demand_mshr_miss_rate::total       0.780478                       # mshr miss rate for demand accesses
system.l2.overall_mshr_miss_rate::.cpu.inst     0.971209                       # mshr miss rate for overall accesses
system.l2.overall_mshr_miss_rate::.cpu.data     0.778459                       # mshr miss rate for overall accesses
system.l2.overall_mshr_miss_rate::total      0.780478                       # mshr miss rate for overall accesses
system.l2.demand_avg_mshr_miss_latency::.cpu.inst 75770.750988                       # average overall mshr miss latency
system.l2.demand_avg_mshr_miss_latency::.cpu.data 87173.633944                       # average overall mshr miss latency
system.l2.demand_avg_mshr_miss_latency::total 87025.033481                       # average overall mshr miss latency
system.l2.overall_avg_mshr_miss_latency::.cpu.inst 75770.750988                       # average overall mshr miss latency
system.l2.overall_avg_mshr_miss_latency::.cpu.data 87173.633944                       # average overall mshr miss latency
system.l2.overall_avg_mshr_miss_latency::total 87025.033481                       # average overall mshr miss latency
system.l2.replacements                           6060                       # number of replacements
system.l2.WritebackDirty_hits::.writebacks        45688                       # number of WritebackDirty hits
system.l2.WritebackDirty_hits::total            45688                       # number of WritebackDirty hits
system.l2.WritebackDirty_accesses::.writebacks        45688                       # number of WritebackDirty accesses(hits+misses)
system.l2.WritebackDirty_accesses::total        45688                       # number of WritebackDirty accesses(hits+misses)
system.l2.WritebackClean_hits::.writebacks           38                       # number of WritebackClean hits
system.l2.WritebackClean_hits::total               38                       # number of WritebackClean hits
system.l2.WritebackClean_accesses::.writebacks           38                       # number of WritebackClean accesses(hits+misses)
system.l2.WritebackClean_accesses::total           38                       # number of WritebackClean accesses(hits+misses)
system.l2.ReadExReq_hits::.cpu.data                 8                       # number of ReadExReq hits
system.l2.ReadExReq_hits::total                     8                       # number of ReadExReq hits
system.l2.ReadExReq_misses::.cpu.data           37940                       # number of ReadExReq misses
system.l2.ReadExReq_misses::total               37940                       # number of ReadExReq misses
system.l2.ReadExReq_miss_latency::.cpu.data   4064840000                       # number of ReadExReq miss cycles
system.l2.ReadExReq_miss_latency::total    4064840000                       # number of ReadExReq miss cycles
system.l2.ReadExReq_accesses::.cpu.data         37948                       # number of ReadExReq accesses(hits+misses)
system.l2.ReadExReq_accesses::total             37948                       # number of ReadExReq accesses(hits+misses)
system.l2.ReadExReq_miss_rate::.cpu.data     0.999789                       # miss rate for ReadExReq accesses
system.l2.ReadExReq_miss_rate::total         0.999789                       # miss rate for ReadExReq accesses
system.l2.ReadExReq_avg_miss_latency::.cpu.data 107138.639958                       # average ReadExReq miss latency
system.l2.ReadExReq_avg_miss_latency::total 107138.639958                       # average ReadExReq miss latency
system.l2.ReadExReq_mshr_misses::.cpu.data        37940                       # number of ReadExReq MSHR misses
system.l2.ReadExReq_mshr_misses::total          37940                       # number of ReadExReq MSHR misses
system.l2.ReadExReq_mshr_miss_latency::.cpu.data   3306040000                       # number of ReadExReq MSHR miss cycles
system.l2.ReadExReq_mshr_miss_latency::total   3306040000                       # number of ReadExReq MSHR miss cycles
system.l2.ReadExReq_mshr_miss_rate::.cpu.data     0.999789                       # mshr miss rate for ReadExReq accesses
system.l2.ReadExReq_mshr_miss_rate::total     0.999789                       # mshr miss rate for ReadExReq accesses
system.l2.ReadExReq_avg_mshr_miss_latency::.cpu.data 87138.639958                       # average ReadExReq mshr miss latency
system.l2.ReadExReq_avg_mshr_miss_latency::total 87138.639958                       # average ReadExReq mshr miss latency
system.l2.ReadCleanReq_hits::.cpu.inst             14                       # number of ReadCleanReq hits
system.l2.ReadCleanReq_hits::total                 14                       # number of ReadCleanReq hits
system.l2.ReadCleanReq_misses::.cpu.inst          507                       # number of ReadCleanReq misses
system.l2.ReadCleanReq_misses::total              507                       # number of ReadCleanReq misses
system.l2.ReadCleanReq_miss_latency::.cpu.inst     48534000                       # number of ReadCleanReq miss cycles
system.l2.ReadCleanReq_miss_latency::total     48534000                       # number of ReadCleanReq miss cycles
system.l2.ReadCleanReq_accesses::.cpu.inst          521                       # number of ReadCleanReq accesses(hits+misses)
system.l2.ReadCleanReq_accesses::total            521                       # number of ReadCleanReq accesses(hits+misses)
system.l2.ReadCleanReq_miss_rate::.cpu.inst     0.973129                       # miss rate for ReadCleanReq accesses
system.l2.ReadCleanReq_miss_rate::total      0.973129                       # miss rate for ReadCleanReq accesses
system.l2.ReadCleanReq_avg_miss_latency::.cpu.inst 95727.810651                       # average ReadCleanReq miss latency
system.l2.ReadCleanReq_avg_miss_latency::total 95727.810651                       # average ReadCleanReq miss latency
system.l2.ReadCleanReq_mshr_hits::.cpu.inst            1                       # number of ReadCleanReq MSHR hits
system.l2.ReadCleanReq_mshr_hits::total             1                       # number of ReadCleanReq MSHR hits
system.l2.ReadCleanReq_mshr_misses::.cpu.inst          506                       # number of ReadCleanReq MSHR misses
system.l2.ReadCleanReq_mshr_misses::total          506                       # number of ReadCleanReq MSHR misses
system.l2.ReadCleanReq_mshr_miss_latency::.cpu.inst     38340000                       # number of ReadCleanReq MSHR miss cycles
system.l2.ReadCleanReq_mshr_miss_latency::total     38340000                       # number of ReadCleanReq MSHR miss cycles
system.l2.ReadCleanReq_mshr_miss_rate::.cpu.inst     0.971209                       # mshr miss rate for ReadCleanReq accesses
system.l2.ReadCleanReq_mshr_miss_rate::total     0.971209                       # mshr miss rate for ReadCleanReq accesses
system.l2.ReadCleanReq_avg_mshr_miss_latency::.cpu.inst 75770.750988                       # average ReadCleanReq mshr miss latency
system.l2.ReadCleanReq_avg_mshr_miss_latency::total 75770.750988                       # average ReadCleanReq mshr miss latency
system.l2.ReadSharedReq_hits::.cpu.data         10897                       # number of ReadSharedReq hits
system.l2.ReadSharedReq_hits::total             10897                       # number of ReadSharedReq hits
system.l2.ReadSharedReq_misses::.cpu.data          383                       # number of ReadSharedReq misses
system.l2.ReadSharedReq_misses::total             383                       # number of ReadSharedReq misses
system.l2.ReadSharedReq_miss_latency::.cpu.data     42355000                       # number of ReadSharedReq miss cycles
system.l2.ReadSharedReq_miss_latency::total     42355000                       # number of ReadSharedReq miss cycles
system.l2.ReadSharedReq_accesses::.cpu.data        11280                       # number of ReadSharedReq accesses(hits+misses)
system.l2.ReadSharedReq_accesses::total         11280                       # number of ReadSharedReq accesses(hits+misses)
system.l2.ReadSharedReq_miss_rate::.cpu.data     0.033954                       # miss rate for ReadSharedReq accesses
system.l2.ReadSharedReq_miss_rate::total     0.033954                       # miss rate for ReadSharedReq accesses
system.l2.ReadSharedReq_avg_miss_latency::.cpu.data 110587.467363                       # average ReadSharedReq miss latency
system.l2.ReadSharedReq_avg_miss_latency::total 110587.467363                       # average ReadSharedReq miss latency
system.l2.ReadSharedReq_mshr_hits::.cpu.data            1                       # number of ReadSharedReq MSHR hits
system.l2.ReadSharedReq_mshr_hits::total            1                       # number of ReadSharedReq MSHR hits
system.l2.ReadSharedReq_mshr_misses::.cpu.data          382                       # number of ReadSharedReq MSHR misses
system.l2.ReadSharedReq_mshr_misses::total          382                       # number of ReadSharedReq MSHR misses
system.l2.ReadSharedReq_mshr_miss_latency::.cpu.data     34628000                       # number of ReadSharedReq MSHR miss cycles
system.l2.ReadSharedReq_mshr_miss_latency::total     34628000                       # number of ReadSharedReq MSHR miss cycles
system.l2.ReadSharedReq_mshr_miss_rate::.cpu.data     0.033865                       # mshr miss rate for ReadSharedReq accesses
system.l2.ReadSharedReq_mshr_miss_rate::total     0.033865                       # mshr miss rate for ReadSharedReq accesses
system.l2.ReadSharedReq_avg_mshr_miss_latency::.cpu.data 90649.214660                       # average ReadSharedReq mshr miss latency
system.l2.ReadSharedReq_avg_mshr_miss_latency::total 90649.214660                       # average ReadSharedReq mshr miss latency
system.l2.tags.pwrStateResidencyTicks::UNDEFINED 109012881000                       # Cumulative time (in ticks) in various power states
system.l2.tags.tagsinuse                 25862.635461                       # Cycle average of tags in use
system.l2.tags.total_refs                       96951                       # Total number of references to valid blocks.
system.l2.tags.sampled_refs                     38828                       # Sample count of references to valid blocks.
system.l2.tags.avg_refs                      2.496935                       # Average number of references to valid blocks.
system.l2.tags.warmup_cycle                     87000                       # Cycle when the warmup percentage was hit.
system.l2.tags.occ_blocks::.cpu.inst       311.288519                       # Average occupied blocks per requestor
system.l2.tags.occ_blocks::.cpu.data     25551.346942                       # Average occupied blocks per requestor
system.l2.tags.occ_percent::.cpu.inst        0.009500                       # Average percentage of cache occupancy
system.l2.tags.occ_percent::.cpu.data        0.779765                       # Average percentage of cache occupancy
system.l2.tags.occ_percent::total            0.789265                       # Average percentage of cache occupancy
system.l2.tags.occ_task_id_blocks::1024         32768                       # Occupied blocks per task id
system.l2.tags.age_task_id_blocks_1024::0            2                       # Occupied blocks per task id
system.l2.tags.age_task_id_blocks_1024::1           17                       # Occupied blocks per task id
system.l2.tags.age_task_id_blocks_1024::2          190                       # Occupied blocks per task id
system.l2.tags.age_task_id_blocks_1024::3         1862                       # Occupied blocks per task id
system.l2.tags.age_task_id_blocks_1024::4        30697                       # Occupied blocks per task id
system.l2.tags.occ_task_id_percent::1024            1                       # Percentage of cache occupancy per task id
system.l2.tags.tag_accesses                    814452                       # Number of tag accesses
system.l2.tags.data_accesses                   814452                       # Number of data accesses
system.cpu_voltage_domain.voltage                   1                       # Voltage in Volts
system.mem_ctrls.pwrStateResidencyTicks::UNDEFINED 109012881000                       # Cumulative time (in ticks) in various power states
system.mem_ctrls.bytes_read::.cpu.inst          32384                       # Number of bytes read from this memory
system.mem_ctrls.bytes_read::.cpu.data        2452608                       # Number of bytes read from this memory
system.mem_ctrls.bytes_read::total            2484992                       # Number of bytes read from this memory
system.mem_ctrls.bytes_inst_read::.cpu.inst        32384                       # Number of instructions bytes read from this memory
system.mem_ctrls.bytes_inst_read::total         32384                       # Number of instructions bytes read from this memory
system.mem_ctrls.bytes_written::.writebacks       350528                       # Number of bytes written to this memory
system.mem_ctrls.bytes_written::total          350528                       # Number of bytes written to this memory
system.mem_ctrls.num_reads::.cpu.inst             506                       # Number of read requests responded to by this memory
system.mem_ctrls.num_reads::.cpu.data           38322                       # Number of read requests responded to by this memory
system.mem_ctrls.num_reads::total               38828                       # Number of read requests responded to by this memory
system.mem_ctrls.num_writes::.writebacks         5477                       # Number of write requests responded to by this memory
system.mem_ctrls.num_writes::total               5477                       # Number of write requests responded to by this memory
system.mem_ctrls.bw_read::.cpu.inst            297066                       # Total read bandwidth from this memory (bytes/s)
system.mem_ctrls.bw_read::.cpu.data          22498332                       # Total read bandwidth from this memory (bytes/s)
system.mem_ctrls.bw_read::total              22795398                       # Total read bandwidth from this memory (bytes/s)
system.mem_ctrls.bw_inst_read::.cpu.inst       297066                       # Instruction read bandwidth from this memory (bytes/s)
system.mem_ctrls.bw_inst_read::total           297066                       # Instruction read bandwidth from this memory (bytes/s)
system.mem_ctrls.bw_write::.writebacks        3215473                       # Write bandwidth from this memory (bytes/s)
system.mem_ctrls.bw_write::total              3215473                       # Write bandwidth from this memory (bytes/s)
system.mem_ctrls.bw_total::.writebacks        3215473                       # Total bandwidth to/from this memory (bytes/s)
system.mem_ctrls.bw_total::.cpu.inst           297066                       # Total bandwidth to/from this memory (bytes/s)
system.mem_ctrls.bw_total::.cpu.data         22498332                       # Total bandwidth to/from this memory (bytes/s)
system.mem_ctrls.bw_total::total             26010871                       # Total bandwidth to/from this memory (bytes/s)
system.mem_ctrls.avgPriority_.writebacks::samples      5477.00                       # Average QoS priority value for accepted requests
system.mem_ctrls.avgPriority_.cpu.inst::samples       506.00                       # Average QoS priority value for accepted requests
system.mem_ctrls.avgPriority_.cpu.data::samples     38321.00                       # Average QoS priority value for accepted requests
system.mem_ctrls.priorityMinLatency      0.000000018750                       # per QoS priority minimum request to response latency (s)
system.mem_ctrls.priorityMaxLatency      0.020839522250                       # per QoS priority maximum request to response latency (s)
system.mem_ctrls.numReadWriteTurnArounds          303                       # Number of turnarounds from READ to WRITE
system.mem_ctrls.numWriteReadTurnArounds          303                       # Number of turnarounds from WRITE to READ
system.mem_ctrls.numStayReadState              111120                       # Number of times bus staying in READ state
system.mem_ctrls.numStayWriteState               5162                       # Number of times bus staying in WRITE state
system.mem_ctrls.readReqs                       38828                       # Number of read requests accepted
system.mem_ctrls.writeReqs                       5477                       # Number of write requests accepted
system.mem_ctrls.readBursts                     38828                       # Number of DRAM read bursts, including those serviced by the write queue
system.mem_ctrls.writeBursts                     5477                       # Number of DRAM write bursts, including those merged in the write queue
system.mem_ctrls.servicedByWrQ                      1                       # Number of DRAM read bursts serviced by the write queue
system.mem_ctrls.mergedWrBursts                     0                       # Number of DRAM write bursts merged with an existing one
system.mem_ctrls.neitherReadNorWriteReqs            0                       # Number of requests that are neither read nor write
system.mem_ctrls.perBankRdBursts::0              2373                       # Per bank write bursts
system.mem_ctrls.perBankRdBursts::1              2356                       # Per bank write bursts
system.mem_ctrls.perBankRdBursts::2              2525                       # Per bank write bursts
system.mem_ctrls.perBankRdBursts::3              2678                       # Per bank write bursts
system.mem_ctrls.perBankRdBursts::4              2527                       # Per bank write bursts
system.mem_ctrls.perBankRdBursts::5              2491                       # Per bank write bursts
system.mem_ctrls.perBankRdBursts::6              2470                       # Per bank write bursts
system.mem_ctrls.perBankRdBursts::7              2513                       # Per bank write bursts
system.mem_ctrls.perBankRdBursts::8              2480                       # Per bank write bursts
system.mem_ctrls.perBankRdBursts::9              2336                       # Per bank write bursts
system.mem_ctrls.perBankRdBursts::10             2383                       # Per bank write bursts
system.mem_ctrls.perBankRdBursts::11             2335                       # Per bank write bursts
system.mem_ctrls.perBankRdBursts::12             2315                       # Per bank write bursts
system.mem_ctrls.perBankRdBursts::13             2358                       # Per bank write bursts
system.mem_ctrls.perBankRdBursts::14             2334                       # Per bank write bursts
system.mem_ctrls.perBankRdBursts::15             2353                       # Per bank write bursts
system.mem_ctrls.perBankWrBursts::0               281                       # Per bank write bursts
system.mem_ctrls.perBankWrBursts::1               275                       # Per bank write bursts
system.mem_ctrls.perBankWrBursts::2               463                       # Per bank write bursts
system.mem_ctrls.perBankWrBursts::3               588                       # Per bank write bursts
system.mem_ctrls.perBankWrBursts::4               400                       # Per bank write bursts
system.mem_ctrls.perBankWrBursts::5               390                       # Per bank write bursts
system.mem_ctrls.perBankWrBursts::6               391                       # Per bank write bursts
system.mem_ctrls.perBankWrBursts::7               396                       # Per bank write bursts
system.mem_ctrls.perBankWrBursts::8               364                       # Per bank write bursts
system.mem_ctrls.perBankWrBursts::9               266                       # Per bank write bursts
system.mem_ctrls.perBankWrBursts::10              265                       # Per bank write bursts
system.mem_ctrls.perBankWrBursts::11              268                       # Per bank write bursts
system.mem_ctrls.perBankWrBursts::12              267                       # Per bank write bursts
system.mem_ctrls.perBankWrBursts::13              290                       # Per bank write bursts
system.mem_ctrls.perBankWrBursts::14              276                       # Per bank write bursts
system.mem_ctrls.perBankWrBursts::15              277                       # Per bank write bursts
system.mem_ctrls.avgRdQLen                       1.00                       # Average read queue length when enqueuing
system.mem_ctrls.avgWrQLen                      11.35                       # Average write queue length when enqueuing
system.mem_ctrls.totQLat                    656304500                       # Total ticks spent queuing
system.mem_ctrls.totBusLat                  194135000                       # Total ticks spent in databus transfers
system.mem_ctrls.totMemAccLat              1384310750                       # Total ticks spent from burst creation until serviced by the DRAM
system.mem_ctrls.avgQLat                     16903.30                       # Average queueing delay per DRAM burst
system.mem_ctrls.avgBusLat                    5000.00                       # Average bus latency per DRAM burst
system.mem_ctrls.avgMemAccLat                35653.30                       # Average memory access latency per DRAM burst
system.mem_ctrls.numRdRetry                         0                       # Number of times read queue was full causing retry
system.mem_ctrls.numWrRetry                         0                       # Number of times write queue was full causing retry
system.mem_ctrls.readRowHits                    19732                       # Number of row buffer hits during reads
system.mem_ctrls.writeRowHits                    4698                       # Number of row buffer hits during writes
system.mem_ctrls.readRowHitRate                 50.82                       # Row buffer hit rate for reads
system.mem_ctrls.writeRowHitRate                85.78                       # Row buffer hit rate for writes
system.mem_ctrls.readPktSize::0                     0                       # Read request sizes (log2)
system.mem_ctrls.readPktSize::1                     0                       # Read request sizes (log2)
system.mem_ctrls.readPktSize::2                     0                       # Read request sizes (log2)
system.mem_ctrls.readPktSize::3                     0                       # Read request sizes (log2)
system.mem_ctrls.readPktSize::4                     0                       # Read request sizes (log2)
system.mem_ctrls.readPktSize::5                     0                       # Read request sizes (log2)
system.mem_ctrls.readPktSize::6                 38828                       # Read request sizes (log2)
system.mem_ctrls.writePktSize::0                    0                       # Write request sizes (log2)
system.mem_ctrls.writePktSize::1                    0                       # Write request sizes (log2)
system.mem_ctrls.writePktSize::2                    0                       # Write request sizes (log2)
system.mem_ctrls.writePktSize::3                    0                       # Write request sizes (log2)
system.mem_ctrls.writePktSize::4                    0                       # Write request sizes (log2)
system.mem_ctrls.writePktSize::5                    0                       # Write request sizes (log2)
system.mem_ctrls.writePktSize::6                 5477                       # Write request sizes (log2)
system.mem_ctrls.rdQLenPdf::0                   38700                       # What read queue length does an incoming req see
system.mem_ctrls.rdQLenPdf::1                     120                       # What read queue length does an incoming req see
system.mem_ctrls.rdQLenPdf::2                       7                       # What read queue length does an incoming req see
system.mem_ctrls.rdQLenPdf::3                       0                       # What read queue length does an incoming req see
system.mem_ctrls.rdQLenPdf::4                       0                       # What read queue length does an incoming req see
system.mem_ctrls.rdQLenPdf::5                       0                       # What read queue length does an incoming req see
system.mem_ctrls.rdQLenPdf::6                       0                       # What read queue length does an incoming req see
system.mem_ctrls.rdQLenPdf::7                       0                       # What read queue length does an incoming req see
system.mem_ctrls.rdQLenPdf::8                       0                       # What read queue length does an incoming req see
system.mem_ctrls.rdQLenPdf::9                       0                       # What read queue length does an incoming req see
system.mem_ctrls.rdQLenPdf::10                      0                       # What read queue length does an incoming req see
system.mem_ctrls.rdQLenPdf::11                      0                       # What read queue length does an incoming req see
system.mem_ctrls.rdQLenPdf::12                      0                       # What read queue length does an incoming req see
system.mem_ctrls.rdQLenPdf::13                      0                       # What read queue length does an incoming req see
system.mem_ctrls.rdQLenPdf::14                      0                       # What read queue length does an incoming req see
system.mem_ctrls.rdQLenPdf::15                      0                       # What read queue length does an incoming req see
system.mem_ctrls.rdQLenPdf::16                      0                       # What read queue length does an incoming req see
system.mem_ctrls.rdQLenPdf::17                      0                       # What read queue length does an incoming req see
system.mem_ctrls.rdQLenPdf::18                      0                       # What read queue length does an incoming req see
system.mem_ctrls.rdQLenPdf::19                      0                       # What read queue length does an incoming req see
system.mem_ctrls.rdQLenPdf::20                      0                       # What read queue length does an incoming req see
system.mem_ctrls.rdQLenPdf::21                      0                       # What read queue length does an incoming req see
system.mem_ctrls.rdQLenPdf::22                      0                       # What read queue length does an incoming req see
system.mem_ctrls.rdQLenPdf::23                      0                       # What read queue length does an incoming req see
system.mem_ctrls.rdQLenPdf::24                      0                       # What read queue length does an incoming req see
system.mem_ctrls.rdQLenPdf::25                      0                       # What read queue length does an incoming req see
system.mem_ctrls.rdQLenPdf::26                      0                       # What read queue length does an incoming req see
system.mem_ctrls.rdQLenPdf::27                      0                       # What read queue length does an incoming req see
system.mem_ctrls.rdQLenPdf::28                      0                       # What read queue length does an incoming req see
system.mem_ctrls.rdQLenPdf::29                      0                       # What read queue length does an incoming req see
system.mem_ctrls.rdQLenPdf::30                      0                       # What read queue length does an incoming req see
system.mem_ctrls.rdQLenPdf::31                      0                       # What read queue length does an incoming req see
system.mem_ctrls.wrQLenPdf::0                       1                       # What write queue length does an incoming req see
system.mem_ctrls.wrQLenPdf::1                       1                       # What write queue length does an incoming req see
system.mem_ctrls.wrQLenPdf::2                       1                       # What write queue length does an incoming req see
system.mem_ctrls.wrQLenPdf::3                       1                       # What write queue length does an incoming req see
system.mem_ctrls.wrQLenPdf::4                       1                       # What write queue length does an incoming req see
system.mem_ctrls.wrQLenPdf::5                       1                       # What write queue length does an incoming req see
system.mem_ctrls.wrQLenPdf::6                       1                       # What write queue length does an incoming req see
system.mem_ctrls.wrQLenPdf::7                       1                       # What write queue length does an incoming req see
system.mem_ctrls.wrQLenPdf::8                       1                       # What write queue length does an incoming req see
system.mem_ctrls.wrQLenPdf::9                       1                       # What write queue length does an incoming req see
system.mem_ctrls.wrQLenPdf::10                      1                       # What write queue length does an incoming req see
system.mem_ctrls.wrQLenPdf::11                      1                       # What write queue length does an incoming req see
system.mem_ctrls.wrQLenPdf::12                      1                       # What write queue length does an incoming req see
system.mem_ctrls.wrQLenPdf::13                      1                       # What write queue length does an incoming req see
system.mem_ctrls.wrQLenPdf::14                      1                       # What write queue length does an incoming req see
system.mem_ctrls.wrQLenPdf::15                    304                       # What write queue length does an incoming req see
system.mem_ctrls.wrQLenPdf::16                    304                       # What write queue length does an incoming req see
system.mem_ctrls.wrQLenPdf::17                    304                       # What write queue length does an incoming req see
system.mem_ctrls.wrQLenPdf::18                    304                       # What write queue length does an incoming req see
system.mem_ctrls.wrQLenPdf::19                    304                       # What write queue length does an incoming req see
system.mem_ctrls.wrQLenPdf::20                    304                       # What write queue length does an incoming req see
system.mem_ctrls.wrQLenPdf::21                    303                       # What write queue length does an incoming req see
system.mem_ctrls.wrQLenPdf::22                    303                       # What write queue length does an incoming req see
system.mem_ctrls.wrQLenPdf::23                    303                       # What write queue length does an incoming req see
system.mem_ctrls.wrQLenPdf::24                    303                       # What write queue length does an incoming req see
system.mem_ctrls.wrQLenPdf::25                    303                       # What write queue length does an incoming req see
system.mem_ctrls.wrQLenPdf::26                    304                       # What write queue length does an incoming req see
system.mem_ctrls.wrQLenPdf::27                    303                       # What write queue length does an incoming req see
system.mem_ctrls.wrQLenPdf::28                    303                       # What write queue length does an incoming req see
system.mem_ctrls.wrQLenPdf::29                    303                       # What write queue length does an incoming req see
system.mem_ctrls.wrQLenPdf::30                    304                       # What write queue length does an incoming req see
system.mem_ctrls.wrQLenPdf::31                    303                       # What write queue length does an incoming req see
system.mem_ctrls.wrQLenPdf::32                    303                       # What write queue length does an incoming req see
system.mem_ctrls.wrQLenPdf::33                      0                       # What write queue length does an incoming req see
system.mem_ctrls.wrQLenPdf::34                      0                       # What write queue length does an incoming req see
system.mem_ctrls.wrQLenPdf::35                      0                       # What write queue length does an incoming req see
system.mem_ctrls.wrQLenPdf::36                      0                       # What write queue length does an incoming req see
system.mem_ctrls.wrQLenPdf::37                      0                       # What write queue length does an incoming req see
system.mem_ctrls.wrQLenPdf::38                      0                       # What write queue length does an incoming req see
system.mem_ctrls.wrQLenPdf::39                      0                       # What write queue length does an incoming req see
system.mem_ctrls.wrQLenPdf::40                      0                       # What write queue length does an incoming req see
system.mem_ctrls.wrQLenPdf::41                      0                       # What write queue length does an incoming req see
system.mem_ctrls.wrQLenPdf::42                      0                       # What write queue length does an incoming req see
system.mem_ctrls.wrQLenPdf::43                      0                       # What write queue length does an incoming req see
system.mem_ctrls.wrQLenPdf::44                      0                       # What write queue length does an incoming req see
system.mem_ctrls.wrQLenPdf::45                      0                       # What write queue length does an incoming req see
system.mem_ctrls.wrQLenPdf::46                      0                       # What write queue length does an incoming req see
system.mem_ctrls.wrQLenPdf::47                      0                       # What write queue length does an incoming req see
system.mem_ctrls.wrQLenPdf::48                      0                       # What write queue length does an incoming req see
system.mem_ctrls.wrQLenPdf::49                      0                       # What write queue length does an incoming req see
system.mem_ctrls.wrQLenPdf::50                      0                       # What write queue length does an incoming req see
system.mem_ctrls.wrQLenPdf::51                      0                       # What write queue length does an incoming req see
system.mem_ctrls.wrQLenPdf::52                      0                       # What write queue length does an incoming req see
system.mem_ctrls.wrQLenPdf::53                      0                       # What write queue length does an incoming req see
system.mem_ctrls.wrQLenPdf::54                      0                       # What write queue length does an incoming req see
system.mem_ctrls.wrQLenPdf::55                      0                       # What write queue length does an incoming req see
system.mem_ctrls.wrQLenPdf::56                      0                       # What write queue length does an incoming req see
system.mem_ctrls.wrQLenPdf::57                      0                       # What write queue length does an incoming req see
system.mem_ctrls.wrQLenPdf::58                      0                       # What write queue length does an incoming req see
system.mem_ctrls.wrQLenPdf::59                      0                       # What write queue length does an incoming req see
system.mem_ctrls.wrQLenPdf::60                      0                       # What write queue length does an incoming req see
system.mem_ctrls.wrQLenPdf::61                      0                       # What write queue length does an incoming req see
system.mem_ctrls.wrQLenPdf::62                      0                       # What write queue length does an incoming req see
system.mem_ctrls.wrQLenPdf::63                      0                       # What write queue length does an incoming req see
system.mem_ctrls.bytesPerActivate::samples        19853                       # Bytes accessed per row activation
system.mem_ctrls.bytesPerActivate::mean    142.754848                       # Bytes accessed per row activation
system.mem_ctrls.bytesPerActivate::gmean   116.355777                       # Bytes accessed per row activation
system.mem_ctrls.bytesPerActivate::stdev   126.088322                       # Bytes accessed per row activation
system.mem_ctrls.bytesPerActivate::0-127         7625     38.41%     38.41% # Bytes accessed per row activation
system.mem_ctrls.bytesPerActivate::128-255         9732     49.02%     87.43% # Bytes accessed per row activation
system.mem_ctrls.bytesPerActivate::256-383         1741      8.77%     96.20% # Bytes accessed per row activation
system.mem_ctrls.bytesPerActivate::384-511          413      2.08%     98.28% # Bytes accessed per row activation
system.mem_ctrls.bytesPerActivate::512-639           46      0.23%     98.51% # Bytes accessed per row activation
system.mem_ctrls.bytesPerActivate::640-767           44      0.22%     98.73% # Bytes accessed per row activation
system.mem_ctrls.bytesPerActivate::768-895           26      0.13%     98.86% # Bytes accessed per row activation
system.mem_ctrls.bytesPerActivate::896-1023           44      0.22%     99.08% # Bytes accessed per row activation
system.mem_ctrls.bytesPerActivate::1024-1151          182      0.92%    100.00% # Bytes accessed per row activation
system.mem_ctrls.bytesPerActivate::total        19853                       # Bytes accessed per row activation
system.mem_ctrls.rdPerTurnAround::samples          303                       # Reads before turning the bus around for writes
system.mem_ctrls.rdPerTurnAround::mean     128.125413                       # Reads before turning the bus around for writes
system.mem_ctrls.rdPerTurnAround::gmean     19.634538                       # Reads before turning the bus around for writes
system.mem_ctrls.rdPerTurnAround::stdev   1673.942710                       # Reads before turning the bus around for writes
system.mem_ctrls.rdPerTurnAround::0-1023          300     99.01%     99.01% # Reads before turning the bus around for writes
system.mem_ctrls.rdPerTurnAround::1024-2047            2      0.66%     99.67% # Reads before turning the bus around for writes
system.mem_ctrls.rdPerTurnAround::28672-29695            1      0.33%    100.00% # Reads before turning the bus around for writes
system.mem_ctrls.rdPerTurnAround::total           303                       # Reads before turning the bus around for writes
system.mem_ctrls.wrPerTurnAround::samples          303                       # Writes before turning the bus around for reads
system.mem_ctrls.wrPerTurnAround::mean      18.009901                       # Writes before turning the bus around for reads
system.mem_ctrls.wrPerTurnAround::gmean     18.009638                       # Writes before turning the bus around for reads
[...]
system.cpu.icache.ReadReq_avg_miss_latency::total 98748.560461                       # average ReadReq miss latency
system.cpu.icache.ReadReq_mshr_misses::.cpu.inst          521                       # number of ReadReq MSHR misses
system.cpu.icache.ReadReq_mshr_misses::total          521                       # number of ReadReq MSHR misses
system.cpu.icache.ReadReq_mshr_miss_latency::.cpu.inst     50406000                       # number of ReadReq MSHR miss cycles
system.cpu.icache.ReadReq_mshr_miss_latency::total     50406000                       # number of ReadReq MSHR miss cycles
system.cpu.icache.ReadReq_mshr_miss_rate::.cpu.inst     0.000019                       # mshr miss rate for ReadReq accesses
system.cpu.icache.ReadReq_mshr_miss_rate::total     0.000019                       # mshr miss rate for ReadReq accesses
system.cpu.icache.ReadReq_avg_mshr_miss_latency::.cpu.inst 96748.560461                       # average ReadReq mshr miss latency
system.cpu.icache.ReadReq_avg_mshr_miss_latency::total 96748.560461                       # average ReadReq mshr miss latency
system.cpu.icache.tags.pwrStateResidencyTicks::UNDEFINED 109012881000                       # Cumulative time (in ticks) in various power states
system.cpu.icache.tags.tagsinuse           482.173393                       # Cycle average of tags in use
system.cpu.icache.tags.total_refs            27002368                       # Total number of references to valid blocks.
system.cpu.icache.tags.sampled_refs               521                       # Sample count of references to valid blocks.
system.cpu.icache.tags.avg_refs          51827.961612                       # Average number of references to valid blocks.
system.cpu.icache.tags.warmup_cycle            108000                       # Cycle when the warmup percentage was hit.
system.cpu.icache.tags.occ_blocks::.cpu.inst   482.173393                       # Average occupied blocks per requestor
system.cpu.icache.tags.occ_percent::.cpu.inst     0.470872                       # Average percentage of cache occupancy
system.cpu.icache.tags.occ_percent::total     0.470872                       # Average percentage of cache occupancy
system.cpu.icache.tags.occ_task_id_blocks::1024          483                       # Occupied blocks per task id
system.cpu.icache.tags.age_task_id_blocks_1024::4          483                       # Occupied blocks per task id
system.cpu.icache.tags.occ_task_id_percent::1024     0.471680                       # Percentage of cache occupancy per task id
system.cpu.icache.tags.tag_accesses          54005257                       # Number of tag accesses
system.cpu.icache.tags.data_accesses         54005257                       # Number of data accesses
system.cpu.dtb.walker.pwrStateResidencyTicks::UNDEFINED 109012881000                       # Cumulative time (in ticks) in various power states
system.cpu.dtb.stage2_mmu.stage2_tlb.walker.pwrStateResidencyTicks::UNDEFINED 109012881000                       # Cumulative time (in ticks) in various power states
system.cpu.dcache.pwrStateResidencyTicks::UNDEFINED 109012881000                       # Cumulative time (in ticks) in various power states
system.cpu.dcache.demand_hits::.cpu.data     35103391                       # number of demand (read+write) hits
system.cpu.dcache.demand_hits::total         35103391                       # number of demand (read+write) hits
system.cpu.dcache.overall_hits::.cpu.data     35106492                       # number of overall hits
system.cpu.dcache.overall_hits::total        35106492                       # number of overall hits
system.cpu.dcache.demand_misses::.cpu.data        67242                       # number of demand (read+write) misses
system.cpu.dcache.demand_misses::total          67242                       # number of demand (read+write) misses
system.cpu.dcache.overall_misses::.cpu.data        67270                       # number of overall misses
system.cpu.dcache.overall_misses::total         67270                       # number of overall misses
system.cpu.dcache.demand_miss_latency::.cpu.data   5837550000                       # number of demand (read+write) miss cycles
system.cpu.dcache.demand_miss_latency::total   5837550000                       # number of demand (read+write) miss cycles
system.cpu.dcache.overall_miss_latency::.cpu.data   5837550000                       # number of overall miss cycles
system.cpu.dcache.overall_miss_latency::total   5837550000                       # number of overall miss cycles
system.cpu.dcache.demand_accesses::.cpu.data     35170633                       # number of demand (read+write) accesses
system.cpu.dcache.demand_accesses::total     35170633                       # number of demand (read+write) accesses
system.cpu.dcache.overall_accesses::.cpu.data     35173762                       # number of overall (read+write) accesses
system.cpu.dcache.overall_accesses::total     35173762                       # number of overall (read+write) accesses
system.cpu.dcache.demand_miss_rate::.cpu.data     0.001912                       # miss rate for demand accesses
system.cpu.dcache.demand_miss_rate::total     0.001912                       # miss rate for demand accesses
system.cpu.dcache.overall_miss_rate::.cpu.data     0.001913                       # miss rate for overall accesses
system.cpu.dcache.overall_miss_rate::total     0.001913                       # miss rate for overall accesses
system.cpu.dcache.demand_avg_miss_latency::.cpu.data 86814.044793                       # average overall miss latency
system.cpu.dcache.demand_avg_miss_latency::total 86814.044793                       # average overall miss latency
system.cpu.dcache.overall_avg_miss_latency::.cpu.data 86777.909915                       # average overall miss latency
system.cpu.dcache.overall_avg_miss_latency::total 86777.909915                       # average overall miss latency
system.cpu.dcache.blocked_cycles::no_mshrs            0                       # number of cycles access was blocked
system.cpu.dcache.blocked_cycles::no_targets            0                       # number of cycles access was blocked
system.cpu.dcache.blocked::no_mshrs                 0                       # number of cycles access was blocked
system.cpu.dcache.blocked::no_targets               0                       # number of cycles access was blocked
system.cpu.dcache.avg_blocked_cycles::no_mshrs          nan                       # average number of cycles each access was blocked
system.cpu.dcache.avg_blocked_cycles::no_targets          nan                       # average number of cycles each access was blocked
system.cpu.dcache.writebacks::.writebacks        45688                       # number of writebacks
system.cpu.dcache.writebacks::total             45688                       # number of writebacks
system.cpu.dcache.demand_mshr_hits::.cpu.data        18038                       # number of demand (read+write) MSHR hits
system.cpu.dcache.demand_mshr_hits::total        18038                       # number of demand (read+write) MSHR hits
system.cpu.dcache.overall_mshr_hits::.cpu.data        18038                       # number of overall MSHR hits
system.cpu.dcache.overall_mshr_hits::total        18038                       # number of overall MSHR hits
system.cpu.dcache.demand_mshr_misses::.cpu.data        49204                       # number of demand (read+write) MSHR misses
system.cpu.dcache.demand_mshr_misses::total        49204                       # number of demand (read+write) MSHR misses
system.cpu.dcache.overall_mshr_misses::.cpu.data        49228                       # number of overall MSHR misses
system.cpu.dcache.overall_mshr_misses::total        49228                       # number of overall MSHR misses
system.cpu.dcache.demand_mshr_miss_latency::.cpu.data   4481980000                       # number of demand (read+write) MSHR miss cycles
system.cpu.dcache.demand_mshr_miss_latency::total   4481980000                       # number of demand (read+write) MSHR miss cycles
system.cpu.dcache.overall_mshr_miss_latency::.cpu.data   4483905000                       # number of overall MSHR miss cycles
system.cpu.dcache.overall_mshr_miss_latency::total   4483905000                       # number of overall MSHR miss cycles
system.cpu.dcache.demand_mshr_miss_rate::.cpu.data     0.001399                       # mshr miss rate for demand accesses
system.cpu.dcache.demand_mshr_miss_rate::total     0.001399                       # mshr miss rate for demand accesses
system.cpu.dcache.overall_mshr_miss_rate::.cpu.data     0.001400                       # mshr miss rate for overall accesses
system.cpu.dcache.overall_mshr_miss_rate::total     0.001400                       # mshr miss rate for overall accesses
system.cpu.dcache.demand_avg_mshr_miss_latency::.cpu.data 91089.748801                       # average overall mshr miss latency
system.cpu.dcache.demand_avg_mshr_miss_latency::total 91089.748801                       # average overall mshr miss latency
system.cpu.dcache.overall_avg_mshr_miss_latency::.cpu.data 91084.443812                       # average overall mshr miss latency
system.cpu.dcache.overall_avg_mshr_miss_latency::total 91084.443812                       # average overall mshr miss latency
system.cpu.dcache.replacements                  47180                       # number of replacements
system.cpu.dcache.ReadReq_hits::.cpu.data     20890872                       # number of ReadReq hits
system.cpu.dcache.ReadReq_hits::total        20890872                       # number of ReadReq hits
system.cpu.dcache.ReadReq_misses::.cpu.data        12775                       # number of ReadReq misses
system.cpu.dcache.ReadReq_misses::total         12775                       # number of ReadReq misses
system.cpu.dcache.ReadReq_miss_latency::.cpu.data    379493000                       # number of ReadReq miss cycles
system.cpu.dcache.ReadReq_miss_latency::total    379493000                       # number of ReadReq miss cycles
system.cpu.dcache.ReadReq_accesses::.cpu.data     20903647                       # number of ReadReq accesses(hits+misses)
system.cpu.dcache.ReadReq_accesses::total     20903647                       # number of ReadReq accesses(hits+misses)
system.cpu.dcache.ReadReq_miss_rate::.cpu.data     0.000611                       # miss rate for ReadReq accesses
system.cpu.dcache.ReadReq_miss_rate::total     0.000611                       # miss rate for ReadReq accesses
system.cpu.dcache.ReadReq_avg_miss_latency::.cpu.data 29705.909980                       # average ReadReq miss latency
system.cpu.dcache.ReadReq_avg_miss_latency::total 29705.909980                       # average ReadReq miss latency
system.cpu.dcache.ReadReq_mshr_hits::.cpu.data         1519                       # number of ReadReq MSHR hits
system.cpu.dcache.ReadReq_mshr_hits::total         1519                       # number of ReadReq MSHR hits
system.cpu.dcache.ReadReq_mshr_misses::.cpu.data        11256                       # number of ReadReq MSHR misses
system.cpu.dcache.ReadReq_mshr_misses::total        11256                       # number of ReadReq MSHR misses
system.cpu.dcache.ReadReq_mshr_miss_latency::.cpu.data    303124000                       # number of ReadReq MSHR miss cycles
system.cpu.dcache.ReadReq_mshr_miss_latency::total    303124000                       # number of ReadReq MSHR miss cycles
system.cpu.dcache.ReadReq_mshr_miss_rate::.cpu.data     0.000538                       # mshr miss rate for ReadReq accesses
system.cpu.dcache.ReadReq_mshr_miss_rate::total     0.000538                       # mshr miss rate for ReadReq accesses
system.cpu.dcache.ReadReq_avg_mshr_miss_latency::.cpu.data 26929.992893                       # average ReadReq mshr miss latency
system.cpu.dcache.ReadReq_avg_mshr_miss_latency::total 26929.992893                       # average ReadReq mshr miss latency
system.cpu.dcache.WriteReq_hits::.cpu.data     14212519                       # number of WriteReq hits
system.cpu.dcache.WriteReq_hits::total       14212519                       # number of WriteReq hits
system.cpu.dcache.WriteReq_misses::.cpu.data        54467                       # number of WriteReq misses
system.cpu.dcache.WriteReq_misses::total        54467                       # number of WriteReq misses
system.cpu.dcache.WriteReq_miss_latency::.cpu.data   5458057000                       # number of WriteReq miss cycles
system.cpu.dcache.WriteReq_miss_latency::total   5458057000                       # number of WriteReq miss cycles
system.cpu.dcache.WriteReq_accesses::.cpu.data     14266986                       # number of WriteReq accesses(hits+misses)
system.cpu.dcache.WriteReq_accesses::total     14266986                       # number of WriteReq accesses(hits+misses)
system.cpu.dcache.WriteReq_miss_rate::.cpu.data     0.003818                       # miss rate for WriteReq accesses
system.cpu.dcache.WriteReq_miss_rate::total     0.003818                       # miss rate for WriteReq accesses
system.cpu.dcache.WriteReq_avg_miss_latency::.cpu.data 100208.511576                       # average WriteReq miss latency
system.cpu.dcache.WriteReq_avg_miss_latency::total 100208.511576                       # average WriteReq miss latency
system.cpu.dcache.WriteReq_mshr_hits::.cpu.data        16519                       # number of WriteReq MSHR hits
system.cpu.dcache.WriteReq_mshr_hits::total        16519                       # number of WriteReq MSHR hits
system.cpu.dcache.WriteReq_mshr_misses::.cpu.data        37948                       # number of WriteReq MSHR misses
system.cpu.dcache.WriteReq_mshr_misses::total        37948                       # number of WriteReq MSHR misses
system.cpu.dcache.WriteReq_mshr_miss_latency::.cpu.data   4178856000                       # number of WriteReq MSHR miss cycles
system.cpu.dcache.WriteReq_mshr_miss_latency::total   4178856000                       # number of WriteReq MSHR miss cycles
system.cpu.dcache.WriteReq_mshr_miss_rate::.cpu.data     0.002660                       # mshr miss rate for WriteReq accesses
system.cpu.dcache.WriteReq_mshr_miss_rate::total     0.002660                       # mshr miss rate for WriteReq accesses
system.cpu.dcache.WriteReq_avg_mshr_miss_latency::.cpu.data 110120.586065                       # average WriteReq mshr miss latency
system.cpu.dcache.WriteReq_avg_mshr_miss_latency::total 110120.586065                       # average WriteReq mshr miss latency
system.cpu.dcache.SoftPFReq_hits::.cpu.data         3101                       # number of SoftPFReq hits
system.cpu.dcache.SoftPFReq_hits::total          3101                       # number of SoftPFReq hits
system.cpu.dcache.SoftPFReq_misses::.cpu.data           28                       # number of SoftPFReq misses
system.cpu.dcache.SoftPFReq_misses::total           28                       # number of SoftPFReq misses
system.cpu.dcache.SoftPFReq_accesses::.cpu.data         3129                       # number of SoftPFReq accesses(hits+misses)
system.cpu.dcache.SoftPFReq_accesses::total         3129                       # number of SoftPFReq accesses(hits+misses)
system.cpu.dcache.SoftPFReq_miss_rate::.cpu.data     0.008949                       # miss rate for SoftPFReq accesses
system.cpu.dcache.SoftPFReq_miss_rate::total     0.008949                       # miss rate for SoftPFReq accesses
system.cpu.dcache.SoftPFReq_mshr_misses::.cpu.data           24                       # number of SoftPFReq MSHR misses
system.cpu.dcache.SoftPFReq_mshr_misses::total           24                       # number of SoftPFReq MSHR misses
system.cpu.dcache.SoftPFReq_mshr_miss_latency::.cpu.data      1925000                       # number of SoftPFReq MSHR miss cycles
system.cpu.dcache.SoftPFReq_mshr_miss_latency::total      1925000                       # number of SoftPFReq MSHR miss cycles
system.cpu.dcache.SoftPFReq_mshr_miss_rate::.cpu.data     0.007670                       # mshr miss rate for SoftPFReq accesses
system.cpu.dcache.SoftPFReq_mshr_miss_rate::total     0.007670                       # mshr miss rate for SoftPFReq accesses
system.cpu.dcache.SoftPFReq_avg_mshr_miss_latency::.cpu.data 80208.333333                       # average SoftPFReq mshr miss latency
system.cpu.dcache.SoftPFReq_avg_mshr_miss_latency::total 80208.333333                       # average SoftPFReq mshr miss latency
system.cpu.dcache.LoadLockedReq_hits::.cpu.data        85610                       # number of LoadLockedReq hits
system.cpu.dcache.LoadLockedReq_hits::total        85610                       # number of LoadLockedReq hits
system.cpu.dcache.LoadLockedReq_accesses::.cpu.data        85610                       # number of LoadLockedReq accesses(hits+misses)
system.cpu.dcache.LoadLockedReq_accesses::total        85610                       # number of LoadLockedReq accesses(hits+misses)
system.cpu.dcache.StoreCondReq_hits::.cpu.data        85610                       # number of StoreCondReq hits
system.cpu.dcache.StoreCondReq_hits::total        85610                       # number of StoreCondReq hits
system.cpu.dcache.StoreCondReq_accesses::.cpu.data        85610                       # number of StoreCondReq accesses(hits+misses)
system.cpu.dcache.StoreCondReq_accesses::total        85610                       # number of StoreCondReq accesses(hits+misses)
system.cpu.dcache.tags.pwrStateResidencyTicks::UNDEFINED 109012881000                       # Cumulative time (in ticks) in various power states
system.cpu.dcache.tags.tagsinuse          2031.613069                       # Cycle average of tags in use
system.cpu.dcache.tags.total_refs            35326940                       # Total number of references to valid blocks.
system.cpu.dcache.tags.sampled_refs             49228                       # Sample count of references to valid blocks.
system.cpu.dcache.tags.avg_refs            717.618835                       # Average number of references to valid blocks.
system.cpu.dcache.tags.warmup_cycle            223000                       # Cycle when the warmup percentage was hit.
system.cpu.dcache.tags.occ_blocks::.cpu.data  2031.613069                       # Average occupied blocks per requestor
system.cpu.dcache.tags.occ_percent::.cpu.data     0.991999                       # Average percentage of cache occupancy
system.cpu.dcache.tags.occ_percent::total     0.991999                       # Average percentage of cache occupancy
system.cpu.dcache.tags.occ_task_id_blocks::1024         2048                       # Occupied blocks per task id
system.cpu.dcache.tags.age_task_id_blocks_1024::0            3                       # Occupied blocks per task id
system.cpu.dcache.tags.age_task_id_blocks_1024::1           20                       # Occupied blocks per task id
system.cpu.dcache.tags.age_task_id_blocks_1024::2          219                       # Occupied blocks per task id
system.cpu.dcache.tags.age_task_id_blocks_1024::3         1669                       # Occupied blocks per task id
system.cpu.dcache.tags.age_task_id_blocks_1024::4          137                       # Occupied blocks per task id
system.cpu.dcache.tags.occ_task_id_percent::1024            1                       # Percentage of cache occupancy per task id
system.cpu.dcache.tags.tag_accesses          70739192                       # Number of tag accesses
system.cpu.dcache.tags.data_accesses         70739192                       # Number of data accesses
system.cpu.itb.walker.pwrStateResidencyTicks::UNDEFINED 109012881000                       # Cumulative time (in ticks) in various power states
system.cpu.itb.stage2_mmu.stage2_tlb.walker.pwrStateResidencyTicks::UNDEFINED 109012881000                       # Cumulative time (in ticks) in various power states

---------- End Simulation Statistics   ----------
