
---------- Begin Simulation Statistics ----------
final_tick                               262356512000                       # Number of ticks from beginning of simulation (restored from checkpoints and never reset)
host_inst_rate                                 214444                       # Simulator instruction rate (inst/s)
host_mem_usage                                 743284                       # Number of bytes of host memory used
host_op_rate                                   214451                       # Simulator op (including micro ops) rate (op/s)
host_seconds                                   466.32                       # Real time elapsed on the host
host_tick_rate                              562605888                       # Simulator tick rate (ticks/s)
sim_freq                                 1000000000000                       # Frequency of simulated ticks
sim_insts                                   100000001                       # Number of instructions simulated
sim_ops                                     100003539                       # Number of ops (including micro ops) simulated
sim_seconds                                  0.262357                       # Number of seconds simulated
sim_ticks                                262356512000                       # Number of ticks simulated
system.clk_domain.clock                          1000                       # Clock period in ticks
system.cpu.branchPred.BTBCorrect                    0                       # Number of correct BTB predictions (this stat may not work properly.
system.cpu.branchPred.BTBHitPct             99.550869                       # BTB Hit Percentage
system.cpu.branchPred.BTBHits                  596910                       # Number of BTB hits
system.cpu.branchPred.BTBLookups               599603                       # Number of BTB lookups
system.cpu.branchPred.RASInCorrect                  7                       # Number of incorrect RAS predictions.
system.cpu.branchPred.condIncorrect               822                       # Number of conditional branches incorrect
system.cpu.branchPred.condPredicted            599825                       # Number of conditional branches predicted
system.cpu.branchPred.indirectHits                155                       # Number of indirect target hits.
system.cpu.branchPred.indirectLookups             358                       # Number of indirect predictor lookups.
system.cpu.branchPred.indirectMisses              203                       # Number of indirect misses.
system.cpu.branchPred.lookups                  601796                       # Number of BP lookups
system.cpu.branchPred.usedRAS                     561                       # Number of times the RAS was used to get a target.
system.cpu.branchPredindirectMispredicted          114                       # Number of mispredicted indirect branches.
system.cpu.committedInsts                   100000001                       # Number of instructions committed
system.cpu.committedOps                     100003539                       # Number of ops (including micro ops) committed
system.cpu.cpi                               2.623565                       # CPI: cycles per instruction
system.cpu.dcache.LoadLockedReq_accesses::.cpu.data           14                       # number of LoadLockedReq accesses(hits+misses)
system.cpu.dcache.LoadLockedReq_accesses::total           14                       # number of LoadLockedReq accesses(hits+misses)
system.cpu.dcache.LoadLockedReq_avg_miss_latency::.cpu.data        95000                       # average LoadLockedReq miss latency
system.cpu.dcache.LoadLockedReq_avg_miss_latency::total        95000                       # average LoadLockedReq miss latency
system.cpu.dcache.LoadLockedReq_avg_mshr_miss_latency::.cpu.data        93000                       # average LoadLockedReq mshr miss latency
system.cpu.dcache.LoadLockedReq_avg_mshr_miss_latency::total        93000                       # average LoadLockedReq mshr miss latency
system.cpu.dcache.LoadLockedReq_hits::.cpu.data           13                       # number of LoadLockedReq hits
system.cpu.dcache.LoadLockedReq_hits::total           13                       # number of LoadLockedReq hits
system.cpu.dcache.LoadLockedReq_miss_latency::.cpu.data        95000                       # number of LoadLockedReq miss cycles
system.cpu.dcache.LoadLockedReq_miss_latency::total        95000                       # number of LoadLockedReq miss cycles
system.cpu.dcache.LoadLockedReq_miss_rate::.cpu.data     0.071429                       # miss rate for LoadLockedReq accesses
system.cpu.dcache.LoadLockedReq_miss_rate::total     0.071429                       # miss rate for LoadLockedReq accesses
system.cpu.dcache.LoadLockedReq_misses::.cpu.data            1                       # number of LoadLockedReq misses
system.cpu.dcache.LoadLockedReq_misses::total            1                       # number of LoadLockedReq misses
system.cpu.dcache.LoadLockedReq_mshr_miss_latency::.cpu.data        93000                       # number of LoadLockedReq MSHR miss cycles
system.cpu.dcache.LoadLockedReq_mshr_miss_latency::total        93000                       # number of LoadLockedReq MSHR miss cycles
system.cpu.dcache.LoadLockedReq_mshr_miss_rate::.cpu.data     0.071429                       # mshr miss rate for LoadLockedReq accesses
system.cpu.dcache.LoadLockedReq_mshr_miss_rate::total     0.071429                       # mshr miss rate for LoadLockedReq accesses
system.cpu.dcache.LoadLockedReq_mshr_misses::.cpu.data            1                       # number of LoadLockedReq MSHR misses
system.cpu.dcache.LoadLockedReq_mshr_misses::total            1                       # number of LoadLockedReq MSHR misses
system.cpu.dcache.ReadReq_accesses::.cpu.data     35711026                       # number of ReadReq accesses(hits+misses)
system.cpu.dcache.ReadReq_accesses::total     35711026                       # number of ReadReq accesses(hits+misses)
system.cpu.dcache.ReadReq_avg_miss_latency::.cpu.data 97472.727273                       # average ReadReq miss latency
system.cpu.dcache.ReadReq_avg_miss_latency::total 97472.727273                       # average ReadReq miss latency
system.cpu.dcache.ReadReq_avg_mshr_miss_latency::.cpu.data 95048.543689                       # average ReadReq mshr miss latency
system.cpu.dcache.ReadReq_avg_mshr_miss_latency::total 95048.543689                       # average ReadReq mshr miss latency
system.cpu.dcache.ReadReq_hits::.cpu.data     35710916                       # number of ReadReq hits
system.cpu.dcache.ReadReq_hits::total        35710916                       # number of ReadReq hits
system.cpu.dcache.ReadReq_miss_latency::.cpu.data     10722000                       # number of ReadReq miss cycles
system.cpu.dcache.ReadReq_miss_latency::total     10722000                       # number of ReadReq miss cycles
system.cpu.dcache.ReadReq_miss_rate::.cpu.data     0.000003                       # miss rate for ReadReq accesses
system.cpu.dcache.ReadReq_miss_rate::total     0.000003                       # miss rate for ReadReq accesses
system.cpu.dcache.ReadReq_misses::.cpu.data          110                       # number of ReadReq misses
system.cpu.dcache.ReadReq_misses::total           110                       # number of ReadReq misses
system.cpu.dcache.ReadReq_mshr_hits::.cpu.data            7                       # number of ReadReq MSHR hits
system.cpu.dcache.ReadReq_mshr_hits::total            7                       # number of ReadReq MSHR hits
system.cpu.dcache.ReadReq_mshr_miss_latency::.cpu.data      9790000                       # number of ReadReq MSHR miss cycles
system.cpu.dcache.ReadReq_mshr_miss_latency::total      9790000                       # number of ReadReq MSHR miss cycles
system.cpu.dcache.ReadReq_mshr_miss_rate::.cpu.data     0.000003                       # mshr miss rate for ReadReq accesses
system.cpu.dcache.ReadReq_mshr_miss_rate::total     0.000003                       # mshr miss rate for ReadReq accesses
system.cpu.dcache.ReadReq_mshr_misses::.cpu.data          103                       # number of ReadReq MSHR misses
system.cpu.dcache.ReadReq_mshr_misses::total          103                       # number of ReadReq MSHR misses
system.cpu.dcache.SoftPFReq_accesses::.cpu.data           46                       # number of SoftPFReq accesses(hits+misses)
system.cpu.dcache.SoftPFReq_accesses::total           46                       # number of SoftPFReq accesses(hits+misses)
system.cpu.dcache.SoftPFReq_avg_mshr_miss_latency::.cpu.data       105400                       # average SoftPFReq mshr miss latency
system.cpu.dcache.SoftPFReq_avg_mshr_miss_latency::total       105400                       # average SoftPFReq mshr miss latency
system.cpu.dcache.SoftPFReq_hits::.cpu.data           32                       # number of SoftPFReq hits
system.cpu.dcache.SoftPFReq_hits::total            32                       # number of SoftPFReq hits
system.cpu.dcache.SoftPFReq_miss_rate::.cpu.data     0.304348                       # miss rate for SoftPFReq accesses
system.cpu.dcache.SoftPFReq_miss_rate::total     0.304348                       # miss rate for SoftPFReq accesses
system.cpu.dcache.SoftPFReq_misses::.cpu.data           14                       # number of SoftPFReq misses
system.cpu.dcache.SoftPFReq_misses::total           14                       # number of SoftPFReq misses
system.cpu.dcache.SoftPFReq_mshr_miss_latency::.cpu.data      1054000                       # number of SoftPFReq MSHR miss cycles
system.cpu.dcache.SoftPFReq_mshr_miss_latency::total      1054000                       # number of SoftPFReq MSHR miss cycles
system.cpu.dcache.SoftPFReq_mshr_miss_rate::.cpu.data     0.217391                       # mshr miss rate for SoftPFReq accesses
system.cpu.dcache.SoftPFReq_mshr_miss_rate::total     0.217391                       # mshr miss rate for SoftPFReq accesses
system.cpu.dcache.SoftPFReq_mshr_misses::.cpu.data           10                       # number of SoftPFReq MSHR misses
system.cpu.dcache.SoftPFReq_mshr_misses::total           10                       # number of SoftPFReq MSHR misses
system.cpu.dcache.StoreCondReq_accesses::.cpu.data           14                       # number of StoreCondReq accesses(hits+misses)
system.cpu.dcache.StoreCondReq_accesses::total           14                       # number of StoreCondReq accesses(hits+misses)
system.cpu.dcache.StoreCondReq_hits::.cpu.data           14                       # number of StoreCondReq hits
system.cpu.dcache.StoreCondReq_hits::total           14                       # number of StoreCondReq hits
system.cpu.dcache.WriteReq_accesses::.cpu.data     13095625                       # number of WriteReq accesses(hits+misses)
system.cpu.dcache.WriteReq_accesses::total     13095625                       # number of WriteReq accesses(hits+misses)
system.cpu.dcache.WriteReq_avg_miss_latency::.cpu.data 100983.369801                       # average WriteReq miss latency
system.cpu.dcache.WriteReq_avg_miss_latency::total 100983.369801                       # average WriteReq miss latency
system.cpu.dcache.WriteReq_avg_mshr_miss_latency::.cpu.data 104283.205867                       # average WriteReq mshr miss latency
system.cpu.dcache.WriteReq_avg_mshr_miss_latency::total 104283.205867                       # average WriteReq mshr miss latency
system.cpu.dcache.WriteReq_hits::.cpu.data     10119954                       # number of WriteReq hits
system.cpu.dcache.WriteReq_hits::total       10119954                       # number of WriteReq hits
system.cpu.dcache.WriteReq_miss_latency::.cpu.data 300493285000                       # number of WriteReq miss cycles
system.cpu.dcache.WriteReq_miss_latency::total 300493285000                       # number of WriteReq miss cycles
system.cpu.dcache.WriteReq_miss_rate::.cpu.data     0.227226                       # miss rate for WriteReq accesses
system.cpu.dcache.WriteReq_miss_rate::total     0.227226                       # miss rate for WriteReq accesses
system.cpu.dcache.WriteReq_misses::.cpu.data      2975671                       # number of WriteReq misses
system.cpu.dcache.WriteReq_misses::total      2975671                       # number of WriteReq misses
system.cpu.dcache.WriteReq_mshr_hits::.cpu.data      1487824                       # number of WriteReq MSHR hits
system.cpu.dcache.WriteReq_mshr_hits::total      1487824                       # number of WriteReq MSHR hits
system.cpu.dcache.WriteReq_mshr_miss_latency::.cpu.data 155157455000                       # number of WriteReq MSHR miss cycles
system.cpu.dcache.WriteReq_mshr_miss_latency::total 155157455000                       # number of WriteReq MSHR miss cycles
system.cpu.dcache.WriteReq_mshr_miss_rate::.cpu.data     0.113614                       # mshr miss rate for WriteReq accesses
system.cpu.dcache.WriteReq_mshr_miss_rate::total     0.113614                       # mshr miss rate for WriteReq accesses
system.cpu.dcache.WriteReq_mshr_misses::.cpu.data      1487847                       # number of WriteReq MSHR misses
system.cpu.dcache.WriteReq_mshr_misses::total      1487847                       # number of WriteReq MSHR misses
system.cpu.dcache.avg_blocked_cycles::no_mshrs          nan                       # average number of cycles each access was blocked
system.cpu.dcache.avg_blocked_cycles::no_targets          nan                       # average number of cycles each access was blocked
system.cpu.dcache.blocked::no_mshrs                 0                       # number of cycles access was blocked
system.cpu.dcache.blocked::no_targets               0                       # number of cycles access was blocked
system.cpu.dcache.blocked_cycles::no_mshrs            0                       # number of cycles access was blocked
system.cpu.dcache.blocked_cycles::no_targets            0                       # number of cycles access was blocked
system.cpu.dcache.demand_accesses::.cpu.data     48806651                       # number of demand (read+write) accesses
system.cpu.dcache.demand_accesses::total     48806651                       # number of demand (read+write) accesses
system.cpu.dcache.demand_avg_miss_latency::.cpu.data 100983.240030                       # average overall miss latency
system.cpu.dcache.demand_avg_miss_latency::total 100983.240030                       # average overall miss latency
system.cpu.dcache.demand_avg_mshr_miss_latency::.cpu.data 104282.566619                       # average overall mshr miss latency
system.cpu.dcache.demand_avg_mshr_miss_latency::total 104282.566619                       # average overall mshr miss latency
system.cpu.dcache.demand_hits::.cpu.data     45830870                       # number of demand (read+write) hits
system.cpu.dcache.demand_hits::total         45830870                       # number of demand (read+write) hits
system.cpu.dcache.demand_miss_latency::.cpu.data 300504007000                       # number of demand (read+write) miss cycles
system.cpu.dcache.demand_miss_latency::total 300504007000                       # number of demand (read+write) miss cycles
system.cpu.dcache.demand_miss_rate::.cpu.data     0.060971                       # miss rate for demand accesses
system.cpu.dcache.demand_miss_rate::total     0.060971                       # miss rate for demand accesses
system.cpu.dcache.demand_misses::.cpu.data      2975781                       # number of demand (read+write) misses
system.cpu.dcache.demand_misses::total        2975781                       # number of demand (read+write) misses
system.cpu.dcache.demand_mshr_hits::.cpu.data      1487831                       # number of demand (read+write) MSHR hits
system.cpu.dcache.demand_mshr_hits::total      1487831                       # number of demand (read+write) MSHR hits
system.cpu.dcache.demand_mshr_miss_latency::.cpu.data 155167245000                       # number of demand (read+write) MSHR miss cycles
system.cpu.dcache.demand_mshr_miss_latency::total 155167245000                       # number of demand (read+write) MSHR miss cycles
system.cpu.dcache.demand_mshr_miss_rate::.cpu.data     0.030487                       # mshr miss rate for demand accesses
system.cpu.dcache.demand_mshr_miss_rate::total     0.030487                       # mshr miss rate for demand accesses
system.cpu.dcache.demand_mshr_misses::.cpu.data      1487950                       # number of demand (read+write) MSHR misses
system.cpu.dcache.demand_mshr_misses::total      1487950                       # number of demand (read+write) MSHR misses
system.cpu.dcache.overall_accesses::.cpu.data     48806697                       # number of overall (read+write) accesses
system.cpu.dcache.overall_accesses::total     48806697                       # number of overall (read+write) accesses
system.cpu.dcache.overall_avg_miss_latency::.cpu.data 100982.764942                       # average overall miss latency
system.cpu.dcache.overall_avg_miss_latency::total 100982.764942                       # average overall miss latency
system.cpu.dcache.overall_avg_mshr_miss_latency::.cpu.data 104282.574128                       # average overall mshr miss latency
system.cpu.dcache.overall_avg_mshr_miss_latency::total 104282.574128                       # average overall mshr miss latency
system.cpu.dcache.overall_hits::.cpu.data     45830902                       # number of overall hits
system.cpu.dcache.overall_hits::total        45830902                       # number of overall hits
system.cpu.dcache.overall_miss_latency::.cpu.data 300504007000                       # number of overall miss cycles
system.cpu.dcache.overall_miss_latency::total 300504007000                       # number of overall miss cycles
system.cpu.dcache.overall_miss_rate::.cpu.data     0.060971                       # miss rate for overall accesses
system.cpu.dcache.overall_miss_rate::total     0.060971                       # miss rate for overall accesses
system.cpu.dcache.overall_misses::.cpu.data      2975795                       # number of overall misses
system.cpu.dcache.overall_misses::total       2975795                       # number of overall misses
system.cpu.dcache.overall_mshr_hits::.cpu.data      1487831                       # number of overall MSHR hits
system.cpu.dcache.overall_mshr_hits::total      1487831                       # number of overall MSHR hits
system.cpu.dcache.overall_mshr_miss_latency::.cpu.data 155168299000                       # number of overall MSHR miss cycles
system.cpu.dcache.overall_mshr_miss_latency::total 155168299000                       # number of overall MSHR miss cycles
system.cpu.dcache.overall_mshr_miss_rate::.cpu.data     0.030487                       # mshr miss rate for overall accesses
system.cpu.dcache.overall_mshr_miss_rate::total     0.030487                       # mshr miss rate for overall accesses
system.cpu.dcache.overall_mshr_misses::.cpu.data      1487960                       # number of overall MSHR misses
system.cpu.dcache.overall_mshr_misses::total      1487960                       # number of overall MSHR misses
system.cpu.dcache.pwrStateResidencyTicks::UNDEFINED 262356512000                       # Cumulative time (in ticks) in various power states
system.cpu.dcache.replacements                1485913                       # number of replacements
system.cpu.dcache.tags.age_task_id_blocks_1024::0           57                       # Occupied blocks per task id
system.cpu.dcache.tags.age_task_id_blocks_1024::1          509                       # Occupied blocks per task id
system.cpu.dcache.tags.age_task_id_blocks_1024::2         1480                       # Occupied blocks per task id
system.cpu.dcache.tags.age_task_id_blocks_1024::4            2                       # Occupied blocks per task id
system.cpu.dcache.tags.avg_refs             31.801163                       # Average number of references to valid blocks.
system.cpu.dcache.tags.data_accesses         99101411                       # Number of data accesses
system.cpu.dcache.tags.occ_blocks::.cpu.data  2046.201663                       # Average occupied blocks per requestor
system.cpu.dcache.tags.occ_percent::.cpu.data     0.999122                       # Average percentage of cache occupancy
system.cpu.dcache.tags.occ_percent::total     0.999122                       # Average percentage of cache occupancy
system.cpu.dcache.tags.occ_task_id_blocks::1024         2048                       # Occupied blocks per task id
system.cpu.dcache.tags.occ_task_id_percent::1024            1                       # Percentage of cache occupancy per task id
system.cpu.dcache.tags.pwrStateResidencyTicks::UNDEFINED 262356512000                       # Cumulative time (in ticks) in various power states
system.cpu.dcache.tags.sampled_refs           1487961                       # Sample count of references to valid blocks.
system.cpu.dcache.tags.tag_accesses          99101411                       # Number of tag accesses
system.cpu.dcache.tags.tagsinuse          2046.201663                       # Cycle average of tags in use
system.cpu.dcache.tags.total_refs            47318890                       # Total number of references to valid blocks.
system.cpu.dcache.tags.warmup_cycle            240000                       # Cycle when the warmup percentage was hit.
system.cpu.dcache.writebacks::.writebacks      1485815                       # number of writebacks
system.cpu.dcache.writebacks::total           1485815                       # number of writebacks
system.cpu.discardedOps                          2525                       # Number of ops (including micro ops) which were discarded before commit
system.cpu.dstage2_mmu.stage2_tlb.accesses            0                       # DTB accesses
system.cpu.dstage2_mmu.stage2_tlb.align_faults            0                       # Number of TLB faults due to alignment restrictions
system.cpu.dstage2_mmu.stage2_tlb.domain_faults            0                       # Number of TLB faults due to domain restrictions
system.cpu.dstage2_mmu.stage2_tlb.flush_entries            0                       # Number of entries that have been flushed from TLB
system.cpu.dstage2_mmu.stage2_tlb.flush_tlb            0                       # Number of times complete TLB was flushed
system.cpu.dstage2_mmu.stage2_tlb.flush_tlb_asid            0                       # Number of times TLB was flushed by ASID
system.cpu.dstage2_mmu.stage2_tlb.flush_tlb_mva            0                       # Number of times TLB was flushed by MVA
system.cpu.dstage2_mmu.stage2_tlb.flush_tlb_mva_asid            0                       # Number of times TLB was flushed by MVA & ASID
system.cpu.dstage2_mmu.stage2_tlb.hits              0                       # DTB hits
system.cpu.dstage2_mmu.stage2_tlb.inst_accesses            0                       # ITB inst accesses
system.cpu.dstage2_mmu.stage2_tlb.inst_hits            0                       # ITB inst hits
system.cpu.dstage2_mmu.stage2_tlb.inst_misses            0                       # ITB inst misses
system.cpu.dstage2_mmu.stage2_tlb.misses            0                       # DTB misses
system.cpu.dstage2_mmu.stage2_tlb.perms_faults            0                       # Number of TLB faults due to permissions restrictions
system.cpu.dstage2_mmu.stage2_tlb.prefetch_faults            0                       # Number of TLB faults due to prefetch
system.cpu.dstage2_mmu.stage2_tlb.read_accesses            0                       # DTB read accesses
system.cpu.dstage2_mmu.stage2_tlb.read_hits            0                       # DTB read hits
system.cpu.dstage2_mmu.stage2_tlb.read_misses            0                       # DTB read misses
system.cpu.dstage2_mmu.stage2_tlb.walker.pwrStateResidencyTicks::UNDEFINED 262356512000                       # Cumulative time (in ticks) in various power states
system.cpu.dstage2_mmu.stage2_tlb.walker.walkRequestOrigin_Requested::Data            0                       # Table walker requests started/completed, data/inst
system.cpu.dstage2_mmu.stage2_tlb.walker.walkRequestOrigin_Requested::Inst            0                       # Table walker requests started/completed, data/inst
system.cpu.dstage2_mmu.stage2_tlb.walker.walkRequestOrigin_Requested::total            0                       # Table walker requests started/completed, data/inst
system.cpu.dstage2_mmu.stage2_tlb.walker.walkRequestOrigin_Completed::Data            0                       # Table walker requests started/completed, data/inst
system.cpu.dstage2_mmu.stage2_tlb.walker.walkRequestOrigin_Completed::Inst            0                       # Table walker requests started/completed, data/inst
system.cpu.dstage2_mmu.stage2_tlb.walker.walkRequestOrigin_Completed::total            0                       # Table walker requests started/completed, data/inst
system.cpu.dstage2_mmu.stage2_tlb.walker.walkRequestOrigin::total            0                       # Table walker requests started/completed, data/inst
system.cpu.dstage2_mmu.stage2_tlb.walker.walks            0                       # Table walker walks requested
system.cpu.dstage2_mmu.stage2_tlb.write_accesses            0                       # DTB write accesses
system.cpu.dstage2_mmu.stage2_tlb.write_hits            0                       # DTB write hits
system.cpu.dstage2_mmu.stage2_tlb.write_misses            0                       # DTB write misses
system.cpu.dtb.accesses                             0                       # DTB accesses
system.cpu.dtb.align_faults                         0                       # Number of TLB faults due to alignment restrictions
system.cpu.dtb.domain_faults                        0                       # Number of TLB faults due to domain restrictions
system.cpu.dtb.flush_entries                        0                       # Number of entries that have been flushed from TLB
system.cpu.dtb.flush_tlb                            0                       # Number of times complete TLB was flushed
system.cpu.dtb.flush_tlb_asid                       0                       # Number of times TLB was flushed by ASID
system.cpu.dtb.flush_tlb_mva                        0                       # Number of times TLB was flushed by MVA
system.cpu.dtb.flush_tlb_mva_asid                   0                       # Number of times TLB was flushed by MVA & ASID
system.cpu.dtb.hits                                 0                       # DTB hits
system.cpu.dtb.inst_accesses                        0                       # ITB inst accesses
system.cpu.dtb.inst_hits                            0                       # ITB inst hits
system.cpu.dtb.inst_misses                          0                       # ITB inst misses
system.cpu.dtb.misses                               0                       # DTB misses
system.cpu.dtb.perms_faults                         0                       # Number of TLB faults due to permissions restrictions
system.cpu.dtb.prefetch_faults                      0                       # Number of TLB faults due to prefetch
system.cpu.dtb.read_accesses                        0                       # DTB read accesses
system.cpu.dtb.read_hits                            0                       # DTB read hits
system.cpu.dtb.read_misses                          0                       # DTB read misses
system.cpu.dtb.walker.pwrStateResidencyTicks::UNDEFINED 262356512000                       # Cumulative time (in ticks) in various power states
system.cpu.dtb.walker.walkRequestOrigin_Requested::Data            0                       # Table walker requests started/completed, data/inst
system.cpu.dtb.walker.walkRequestOrigin_Requested::Inst            0                       # Table walker requests started/completed, data/inst
system.cpu.dtb.walker.walkRequestOrigin_Requested::total            0                       # Table walker requests started/completed, data/inst
system.cpu.dtb.walker.walkRequestOrigin_Completed::Data            0                       # Table walker requests started/completed, data/inst
system.cpu.dtb.walker.walkRequestOrigin_Completed::Inst            0                       # Table walker requests started/completed, data/inst
system.cpu.dtb.walker.walkRequestOrigin_Completed::total            0                       # Table walker requests started/completed, data/inst
system.cpu.dtb.walker.walkRequestOrigin::total            0                       # Table walker requests started/completed, data/inst
system.cpu.dtb.walker.walks                         0                       # Table walker walks requested
system.cpu.dtb.write_accesses                       0                       # DTB write accesses
system.cpu.dtb.write_hits                           0                       # DTB write hits
system.cpu.dtb.write_misses                         0                       # DTB write misses
system.cpu.fetch2.amo_instructions                  0                       # Number of memory atomic instructions successfully decoded
system.cpu.fetch2.fp_instructions                   0                       # Number of floating point instructions successfully decoded
system.cpu.fetch2.int_instructions           49411435                       # Number of integer instructions successfully decoded
system.cpu.fetch2.load_instructions          36901106                       # Number of memory load instructions successfully decoded
system.cpu.fetch2.store_instructions         13094542                       # Number of memory store instructions successfully decoded
system.cpu.fetch2.vec_instructions                  0                       # Number of SIMD instructions successfully decoded
system.cpu.icache.ReadReq_accesses::.cpu.inst      5364479                       # number of ReadReq accesses(hits+misses)
system.cpu.icache.ReadReq_accesses::total      5364479                       # number of ReadReq accesses(hits+misses)
system.cpu.icache.ReadReq_avg_miss_latency::.cpu.inst 98365.048544                       # average ReadReq miss latency
system.cpu.icache.ReadReq_avg_miss_latency::total 98365.048544                       # average ReadReq miss latency
system.cpu.icache.ReadReq_avg_mshr_miss_latency::.cpu.inst 96365.048544                       # average ReadReq mshr miss latency
system.cpu.icache.ReadReq_avg_mshr_miss_latency::total 96365.048544                       # average ReadReq mshr miss latency
system.cpu.icache.ReadReq_hits::.cpu.inst      5363964                       # number of ReadReq hits
system.cpu.icache.ReadReq_hits::total         5363964                       # number of ReadReq hits
system.cpu.icache.ReadReq_miss_latency::.cpu.inst     50658000                       # number of ReadReq miss cycles
system.cpu.icache.ReadReq_miss_latency::total     50658000                       # number of ReadReq miss cycles
system.cpu.icache.ReadReq_miss_rate::.cpu.inst     0.000096                       # miss rate for ReadReq accesses
system.cpu.icache.ReadReq_miss_rate::total     0.000096                       # miss rate for ReadReq accesses
system.cpu.icache.ReadReq_misses::.cpu.inst          515                       # number of ReadReq misses
system.cpu.icache.ReadReq_misses::total           515                       # number of ReadReq misses
system.cpu.icache.ReadReq_mshr_miss_latency::.cpu.inst     49628000                       # number of ReadReq MSHR miss cycles
system.cpu.icache.ReadReq_mshr_miss_latency::total     49628000                       # number of ReadReq MSHR miss cycles
system.cpu.icache.ReadReq_mshr_miss_rate::.cpu.inst     0.000096                       # mshr miss rate for ReadReq accesses
system.cpu.icache.ReadReq_mshr_miss_rate::total     0.000096                       # mshr miss rate for ReadReq accesses
system.cpu.icache.ReadReq_mshr_misses::.cpu.inst          515                       # number of ReadReq MSHR misses
system.cpu.icache.ReadReq_mshr_misses::total          515                       # number of ReadReq MSHR misses
system.cpu.icache.avg_blocked_cycles::no_mshrs          nan                       # average number of cycles each access was blocked
system.cpu.icache.avg_blocked_cycles::no_targets          nan                       # average number of cycles each access was blocked
system.cpu.icache.blocked::no_mshrs                 0                       # number of cycles access was blocked
system.cpu.icache.blocked::no_targets               0                       # number of cycles access was blocked
system.cpu.icache.blocked_cycles::no_mshrs            0                       # number of cycles access was blocked
system.cpu.icache.blocked_cycles::no_targets            0                       # number of cycles access was blocked
system.cpu.icache.demand_accesses::.cpu.inst      5364479                       # number of demand (read+write) accesses
system.cpu.icache.demand_accesses::total      5364479                       # number of demand (read+write) accesses
system.cpu.icache.demand_avg_miss_latency::.cpu.inst 98365.048544                       # average overall miss latency
system.cpu.icache.demand_avg_miss_latency::total 98365.048544                       # average overall miss latency
system.cpu.icache.demand_avg_mshr_miss_latency::.cpu.inst 96365.048544                       # average overall mshr miss latency
system.cpu.icache.demand_avg_mshr_miss_latency::total 96365.048544                       # average overall mshr miss latency
system.cpu.icache.demand_hits::.cpu.inst      5363964                       # number of demand (read+write) hits
system.cpu.icache.demand_hits::total          5363964                       # number of demand (read+write) hits
system.cpu.icache.demand_miss_latency::.cpu.inst     50658000                       # number of demand (read+write) miss cycles
system.cpu.icache.demand_miss_latency::total     50658000                       # number of demand (read+write) miss cycles
system.cpu.icache.demand_miss_rate::.cpu.inst     0.000096                       # miss rate for demand accesses
system.cpu.icache.demand_miss_rate::total     0.000096                       # miss rate for demand accesses
system.cpu.icache.demand_misses::.cpu.inst          515                       # number of demand (read+write) misses
system.cpu.icache.demand_misses::total            515                       # number of demand (read+write) misses
system.cpu.icache.demand_mshr_miss_latency::.cpu.inst     49628000                       # number of demand (read+write) MSHR miss cycles
system.cpu.icache.demand_mshr_miss_latency::total     49628000                       # number of demand (read+write) MSHR miss cycles
system.cpu.icache.demand_mshr_miss_rate::.cpu.inst     0.000096                       # mshr miss rate for demand accesses
system.cpu.icache.demand_mshr_miss_rate::total     0.000096                       # mshr miss rate for demand accesses
system.cpu.icache.demand_mshr_misses::.cpu.inst          515                       # number of demand (read+write) MSHR misses
system.cpu.icache.demand_mshr_misses::total          515                       # number of demand (read+write) MSHR misses
system.cpu.icache.overall_accesses::.cpu.inst      5364479                       # number of overall (read+write) accesses
system.cpu.icache.overall_accesses::total      5364479                       # number of overall (read+write) accesses
system.cpu.icache.overall_avg_miss_latency::.cpu.inst 98365.048544                       # average overall miss latency
system.cpu.icache.overall_avg_miss_latency::total 98365.048544                       # average overall miss latency
system.cpu.icache.overall_avg_mshr_miss_latency::.cpu.inst 96365.048544                       # average overall mshr miss latency
system.cpu.icache.overall_avg_mshr_miss_latency::total 96365.048544                       # average overall mshr miss latency
system.cpu.icache.overall_hits::.cpu.inst      5363964                       # number of overall hits
system.cpu.icache.overall_hits::total         5363964                       # number of overall hits
system.cpu.icache.overall_miss_latency::.cpu.inst     50658000                       # number of overall miss cycles
system.cpu.icache.overall_miss_latency::total     50658000                       # number of overall miss cycles
system.cpu.icache.overall_miss_rate::.cpu.inst     0.000096                       # miss rate for overall accesses
system.cpu.icache.overall_miss_rate::total     0.000096                       # miss rate for overall accesses
system.cpu.icache.overall_misses::.cpu.inst          515                       # number of overall misses
system.cpu.icache.overall_misses::total           515                       # number of overall misses
system.cpu.icache.overall_mshr_miss_latency::.cpu.inst     49628000                       # number of overall MSHR miss cycles
system.cpu.icache.overall_mshr_miss_latency::total     49628000                       # number of overall MSHR miss cycles
system.cpu.icache.overall_mshr_miss_rate::.cpu.inst     0.000096                       # mshr miss rate for overall accesses
system.cpu.icache.overall_mshr_miss_rate::total     0.000096                       # mshr miss rate for overall accesses
system.cpu.icache.overall_mshr_misses::.cpu.inst          515                       # number of overall MSHR misses
system.cpu.icache.overall_mshr_misses::total          515                       # number of overall MSHR misses
system.cpu.icache.pwrStateResidencyTicks::UNDEFINED 262356512000                       # Cumulative time (in ticks) in various power states
system.cpu.icache.replacements                     58                       # number of replacements
system.cpu.icache.tags.age_task_id_blocks_1024::4          457                       # Occupied blocks per task id
system.cpu.icache.tags.avg_refs          10416.464078                       # Average number of references to valid blocks.
system.cpu.icache.tags.data_accesses         10729473                       # Number of data accesses
system.cpu.icache.tags.occ_blocks::.cpu.inst   456.936509                       # Average occupied blocks per requestor
system.cpu.icache.tags.occ_percent::.cpu.inst     0.446227                       # Average percentage of cache occupancy
system.cpu.icache.tags.occ_percent::total     0.446227                       # Average percentage of cache occupancy
system.cpu.icache.tags.occ_task_id_blocks::1024          457                       # Occupied blocks per task id
system.cpu.icache.tags.occ_task_id_percent::1024     0.446289                       # Percentage of cache occupancy per task id
system.cpu.icache.tags.pwrStateResidencyTicks::UNDEFINED 262356512000                       # Cumulative time (in ticks) in various power states
system.cpu.icache.tags.sampled_refs               515                       # Sample count of references to valid blocks.
system.cpu.icache.tags.tag_accesses          10729473                       # Number of tag accesses
system.cpu.icache.tags.tagsinuse           456.936509                       # Cycle average of tags in use
system.cpu.icache.tags.total_refs             5364479                       # Total number of references to valid blocks.
system.cpu.icache.tags.warmup_cycle            108000                       # Cycle when the warmup percentage was hit.
system.cpu.icache.writebacks::.writebacks           58                       # number of writebacks
system.cpu.icache.writebacks::total                58                       # number of writebacks
system.cpu.idleCycles                       145679855                       # Total number of cycles that the object has spent stopped
system.cpu.ipc                               0.381161                       # IPC: instructions per cycle
system.cpu.istage2_mmu.stage2_tlb.accesses            0                       # DTB accesses
system.cpu.istage2_mmu.stage2_tlb.align_faults            0                       # Number of TLB faults due to alignment restrictions
system.cpu.istage2_mmu.stage2_tlb.domain_faults            0                       # Number of TLB faults due to domain restrictions
system.cpu.istage2_mmu.stage2_tlb.flush_entries            0                       # Number of entries that have been flushed from TLB
system.cpu.istage2_mmu.stage2_tlb.flush_tlb            0                       # Number of times complete TLB was flushed
system.cpu.istage2_mmu.stage2_tlb.flush_tlb_asid            0                       # Number of times TLB was flushed by ASID
system.cpu.istage2_mmu.stage2_tlb.flush_tlb_mva            0                       # Number of times TLB was flushed by MVA
system.cpu.istage2_mmu.stage2_tlb.flush_tlb_mva_asid            0                       # Number of times TLB was flushed by MVA & ASID
system.cpu.istage2_mmu.stage2_tlb.hits              0                       # DTB hits
system.cpu.istage2_mmu.stage2_tlb.inst_accesses            0                       # ITB inst accesses
system.cpu.istage2_mmu.stage2_tlb.inst_hits            0                       # ITB inst hits
system.cpu.istage2_mmu.stage2_tlb.inst_misses            0                       # ITB inst misses
system.cpu.istage2_mmu.stage2_tlb.misses            0                       # DTB misses
system.cpu.istage2_mmu.stage2_tlb.perms_faults            0                       # Number of TLB faults due to permissions restrictions
system.cpu.istage2_mmu.stage2_tlb.prefetch_faults            0                       # Number of TLB faults due to prefetch
system.cpu.istage2_mmu.stage2_tlb.read_accesses            0                       # DTB read accesses
system.cpu.istage2_mmu.stage2_tlb.read_hits            0                       # DTB read hits
system.cpu.istage2_mmu.stage2_tlb.read_misses            0                       # DTB read misses
system.cpu.istage2_mmu.stage2_tlb.walker.pwrStateResidencyTicks::UNDEFINED 262356512000                       # Cumulative time (in ticks) in various power states
system.cpu.istage2_mmu.stage2_tlb.walker.walkRequestOrigin_Requested::Data            0                       # Table walker requests started/completed, data/inst
system.cpu.istage2_mmu.stage2_tlb.walker.walkRequestOrigin_Requested::Inst            0                       # Table walker requests started/completed, data/inst
system.cpu.istage2_mmu.stage2_tlb.walker.walkRequestOrigin_Requested::total            0                       # Table walker requests started/completed, data/inst
system.cpu.istage2_mmu.stage2_tlb.walker.walkRequestOrigin_Completed::Data            0                       # Table walker requests started/completed, data/inst
system.cpu.istage2_mmu.stage2_tlb.walker.walkRequestOrigin_Completed::Inst            0                       # Table walker requests started/completed, data/inst
system.cpu.istage2_mmu.stage2_tlb.walker.walkRequestOrigin_Completed::total            0                       # Table walker requests started/completed, data/inst
system.cpu.istage2_mmu.stage2_tlb.walker.walkRequestOrigin::total            0                       # Table walker requests started/completed, data/inst
system.cpu.istage2_mmu.stage2_tlb.walker.walks            0                       # Table walker walks requested
system.cpu.istage2_mmu.stage2_tlb.write_accesses            0                       # DTB write accesses
system.cpu.istage2_mmu.stage2_tlb.write_hits            0                       # DTB write hits
system.cpu.istage2_mmu.stage2_tlb.write_misses            0                       # DTB write misses
system.cpu.itb.accesses                             0                       # DTB accesses
system.cpu.itb.align_faults                         0                       # Number of TLB faults due to alignment restrictions
system.cpu.itb.domain_faults                        0                       # Number of TLB faults due to domain restrictions
system.cpu.itb.flush_entries                        0                       # Number of entries that have been flushed from TLB
system.cpu.itb.flush_tlb                            0                       # Number of times complete TLB was flushed
system.cpu.itb.flush_tlb_asid                       0                       # Number of times TLB was flushed by ASID
system.cpu.itb.flush_tlb_mva                        0                       # Number of times TLB was flushed by MVA
system.cpu.itb.flush_tlb_mva_asid                   0                       # Number of times TLB was flushed by MVA & ASID
system.cpu.itb.hits                                 0                       # DTB hits
system.cpu.itb.inst_accesses                        0                       # ITB inst accesses
system.cpu.itb.inst_hits                            0                       # ITB inst hits
system.cpu.itb.inst_misses                          0                       # ITB inst misses
system.cpu.itb.misses                               0                       # DTB misses
system.cpu.itb.perms_faults                         0                       # Number of TLB faults due to permissions restrictions
system.cpu.itb.prefetch_faults                      0                       # Number of TLB faults due to prefetch
system.cpu.itb.read_accesses                        0                       # DTB read accesses
system.cpu.itb.read_hits                            0                       # DTB read hits
system.cpu.itb.read_misses                          0                       # DTB read misses
system.cpu.itb.walker.pwrStateResidencyTicks::UNDEFINED 262356512000                       # Cumulative time (in ticks) in various power states
system.cpu.itb.walker.walkRequestOrigin_Requested::Data            0                       # Table walker requests started/completed, data/inst
system.cpu.itb.walker.walkRequestOrigin_Requested::Inst            0                       # Table walker requests started/completed, data/inst
system.cpu.itb.walker.walkRequestOrigin_Requested::total            0                       # Table walker requests started/completed, data/inst
system.cpu.itb.walker.walkRequestOrigin_Completed::Data            0                       # Table walker requests started/completed, data/inst
system.cpu.itb.walker.walkRequestOrigin_Completed::Inst            0                       # Table walker requests started/completed, data/inst
system.cpu.itb.walker.walkRequestOrigin_Completed::total            0                       # Table walker requests started/completed, data/inst
system.cpu.itb.walker.walkRequestOrigin::total            0                       # Table walker requests started/completed, data/inst
system.cpu.itb.walker.walks                         0                       # Table walker walks requested
system.cpu.itb.write_accesses                       0                       # DTB write accesses
system.cpu.itb.write_hits                           0                       # DTB write hits
system.cpu.itb.write_misses                         0                       # DTB write misses
system.cpu.numCycles                        262356512                       # number of cpu cycles simulated
system.cpu.numFetchSuspends                         0                       # Number of times Execute suspended instruction fetching
system.cpu.numWorkItemsCompleted                    0                       # number of work items this cpu completed
system.cpu.numWorkItemsStarted                      0                       # number of work items this cpu started
system.cpu.op_class_0::No_OpClass                   0      0.00%      0.00% # Class of committed instruction
system.cpu.op_class_0::IntAlu                50006822     50.01%     50.01% # Class of committed instruction
system.cpu.op_class_0::IntMult                     85      0.00%     50.01% # Class of committed instruction
system.cpu.op_class_0::IntDiv                       0      0.00%     50.01% # Class of committed instruction
system.cpu.op_class_0::FloatAdd                     0      0.00%     50.01% # Class of committed instruction
system.cpu.op_class_0::FloatCmp                     0      0.00%     50.01% # Class of committed instruction
system.cpu.op_class_0::FloatCvt                     0      0.00%     50.01% # Class of committed instruction
system.cpu.op_class_0::FloatMult                    0      0.00%     50.01% # Class of committed instruction
system.cpu.op_class_0::FloatMultAcc                 0      0.00%     50.01% # Class of committed instruction
system.cpu.op_class_0::FloatDiv                     0      0.00%     50.01% # Class of committed instruction
system.cpu.op_class_0::FloatMisc                    0      0.00%     50.01% # Class of committed instruction
system.cpu.op_class_0::FloatSqrt                    0      0.00%     50.01% # Class of committed instruction
system.cpu.op_class_0::SimdAdd                      0      0.00%     50.01% # Class of committed instruction
system.cpu.op_class_0::SimdAddAcc                   0      0.00%     50.01% # Class of committed instruction
system.cpu.op_class_0::SimdAlu                      0      0.00%     50.01% # Class of committed instruction
system.cpu.op_class_0::SimdCmp                      0      0.00%     50.01% # Class of committed instruction
system.cpu.op_class_0::SimdCvt                      0      0.00%     50.01% # Class of committed instruction
system.cpu.op_class_0::SimdMisc                     0      0.00%     50.01% # Class of committed instruction
system.cpu.op_class_0::SimdMult                     0      0.00%     50.01% # Class of committed instruction
system.cpu.op_class_0::SimdMultAcc                  0      0.00%     50.01% # Class of committed instruction
system.cpu.op_class_0::SimdShift                    0      0.00%     50.01% # Class of committed instruction
system.cpu.op_class_0::SimdShiftAcc                 0      0.00%     50.01% # Class of committed instruction
system.cpu.op_class_0::SimdDiv                      0      0.00%     50.01% # Class of committed instruction
system.cpu.op_class_0::SimdSqrt                     0      0.00%     50.01% # Class of committed instruction
system.cpu.op_class_0::SimdFloatAdd                 0      0.00%     50.01% # Class of committed instruction
system.cpu.op_class_0::SimdFloatAlu                 0      0.00%     50.01% # Class of committed instruction
system.cpu.op_class_0::SimdFloatCmp                 2      0.00%     50.01% # Class of committed instruction
system.cpu.op_class_0::SimdFloatCvt                 0      0.00%     50.01% # Class of committed instruction
system.cpu.op_class_0::SimdFloatDiv                 0      0.00%     50.01% # Class of committed instruction
system.cpu.op_class_0::SimdFloatMisc                6      0.00%     50.01% # Class of committed instruction
system.cpu.op_class_0::SimdFloatMult                0      0.00%     50.01% # Class of committed instruction
system.cpu.op_class_0::SimdFloatMultAcc             0      0.00%     50.01% # Class of committed instruction
system.cpu.op_class_0::SimdFloatSqrt                0      0.00%     50.01% # Class of committed instruction
system.cpu.op_class_0::SimdReduceAdd                0      0.00%     50.01% # Class of committed instruction
system.cpu.op_class_0::SimdReduceAlu                0      0.00%     50.01% # Class of committed instruction
system.cpu.op_class_0::SimdReduceCmp                0      0.00%     50.01% # Class of committed instruction
system.cpu.op_class_0::SimdFloatReduceAdd            0      0.00%     50.01% # Class of committed instruction
system.cpu.op_class_0::SimdFloatReduceCmp            0      0.00%     50.01% # Class of committed instruction
system.cpu.op_class_0::SimdAes                      0      0.00%     50.01% # Class of committed instruction
system.cpu.op_class_0::SimdAesMix                   0      0.00%     50.01% # Class of committed instruction
system.cpu.op_class_0::SimdSha1Hash                 0      0.00%     50.01% # Class of committed instruction
system.cpu.op_class_0::SimdSha1Hash2                0      0.00%     50.01% # Class of committed instruction
system.cpu.op_class_0::SimdSha256Hash               0      0.00%     50.01% # Class of committed instruction
system.cpu.op_class_0::SimdSha256Hash2              0      0.00%     50.01% # Class of committed instruction
system.cpu.op_class_0::SimdShaSigma2                0      0.00%     50.01% # Class of committed instruction
system.cpu.op_class_0::SimdShaSigma3                0      0.00%     50.01% # Class of committed instruction
system.cpu.op_class_0::SimdPredAlu                  0      0.00%     50.01% # Class of committed instruction
system.cpu.op_class_0::MemRead               36900886     36.90%     86.90% # Class of committed instruction
system.cpu.op_class_0::MemWrite              13095738     13.10%    100.00% # Class of committed instruction
system.cpu.op_class_0::FloatMemRead                 0      0.00%    100.00% # Class of committed instruction
system.cpu.op_class_0::FloatMemWrite                0      0.00%    100.00% # Class of committed instruction
system.cpu.op_class_0::IprAccess                    0      0.00%    100.00% # Class of committed instruction
system.cpu.op_class_0::InstPrefetch                 0      0.00%    100.00% # Class of committed instruction
system.cpu.op_class_0::total                100003539                       # Class of committed instruction
system.cpu.pwrStateResidencyTicks::ON    262356512000                       # Cumulative time (in ticks) in various power states
system.cpu.tickCycles                       116676657                       # Number of cycles that the object actually ticked
system.cpu.workload.numSyscalls                    18                       # Number of system calls
system.cpu_clk_domain.clock                      1000                       # Clock period in ticks
system.cpu_voltage_domain.voltage                   1                       # Voltage in Volts
system.l2.ReadCleanReq_accesses::.cpu.inst          515                       # number of ReadCleanReq accesses(hits+misses)
system.l2.ReadCleanReq_accesses::total            515                       # number of ReadCleanReq accesses(hits+misses)
system.l2.ReadCleanReq_avg_miss_latency::.cpu.inst 96851.323829                       # average ReadCleanReq miss latency
system.l2.ReadCleanReq_avg_miss_latency::total 96851.323829                       # average ReadCleanReq miss latency
system.l2.ReadCleanReq_avg_mshr_miss_latency::.cpu.inst 76851.323829                       # average ReadCleanReq mshr miss latency
system.l2.ReadCleanReq_avg_mshr_miss_latency::total 76851.323829                       # average ReadCleanReq mshr miss latency
system.l2.ReadCleanReq_hits::.cpu.inst             24                       # number of ReadCleanReq hits
system.l2.ReadCleanReq_hits::total                 24                       # number of ReadCleanReq hits
system.l2.ReadCleanReq_miss_latency::.cpu.inst     47554000                       # number of ReadCleanReq miss cycles
system.l2.ReadCleanReq_miss_latency::total     47554000                       # number of ReadCleanReq miss cycles
system.l2.ReadCleanReq_miss_rate::.cpu.inst     0.953398                       # miss rate for ReadCleanReq accesses
system.l2.ReadCleanReq_miss_rate::total      0.953398                       # miss rate for ReadCleanReq accesses
system.l2.ReadCleanReq_misses::.cpu.inst          491                       # number of ReadCleanReq misses
system.l2.ReadCleanReq_misses::total              491                       # number of ReadCleanReq misses
system.l2.ReadCleanReq_mshr_miss_latency::.cpu.inst     37734000                       # number of ReadCleanReq MSHR miss cycles
system.l2.ReadCleanReq_mshr_miss_latency::total     37734000                       # number of ReadCleanReq MSHR miss cycles
system.l2.ReadCleanReq_mshr_miss_rate::.cpu.inst     0.953398                       # mshr miss rate for ReadCleanReq accesses
system.l2.ReadCleanReq_mshr_miss_rate::total     0.953398                       # mshr miss rate for ReadCleanReq accesses
system.l2.ReadCleanReq_mshr_misses::.cpu.inst          491                       # number of ReadCleanReq MSHR misses
system.l2.ReadCleanReq_mshr_misses::total          491                       # number of ReadCleanReq MSHR misses
system.l2.ReadExReq_accesses::.cpu.data       1487847                       # number of ReadExReq accesses(hits+misses)
system.l2.ReadExReq_accesses::total           1487847                       # number of ReadExReq accesses(hits+misses)
system.l2.ReadExReq_avg_miss_latency::.cpu.data 101283.203851                       # average ReadExReq miss latency
system.l2.ReadExReq_avg_miss_latency::total 101283.203851                       # average ReadExReq miss latency
system.l2.ReadExReq_avg_mshr_miss_latency::.cpu.data 81283.203851                       # average ReadExReq mshr miss latency
system.l2.ReadExReq_avg_mshr_miss_latency::total 81283.203851                       # average ReadExReq mshr miss latency
system.l2.ReadExReq_miss_latency::.cpu.data 150693911000                       # number of ReadExReq miss cycles
system.l2.ReadExReq_miss_latency::total  150693911000                       # number of ReadExReq miss cycles
system.l2.ReadExReq_miss_rate::.cpu.data            1                       # miss rate for ReadExReq accesses
system.l2.ReadExReq_miss_rate::total                1                       # miss rate for ReadExReq accesses
system.l2.ReadExReq_misses::.cpu.data         1487847                       # number of ReadExReq misses
system.l2.ReadExReq_misses::total             1487847                       # number of ReadExReq misses
system.l2.ReadExReq_mshr_miss_latency::.cpu.data 120936971000                       # number of ReadExReq MSHR miss cycles
system.l2.ReadExReq_mshr_miss_latency::total 120936971000                       # number of ReadExReq MSHR miss cycles
system.l2.ReadExReq_mshr_miss_rate::.cpu.data            1                       # mshr miss rate for ReadExReq accesses
system.l2.ReadExReq_mshr_miss_rate::total            1                       # mshr miss rate for ReadExReq accesses
system.l2.ReadExReq_mshr_misses::.cpu.data      1487847                       # number of ReadExReq MSHR misses
system.l2.ReadExReq_mshr_misses::total        1487847                       # number of ReadExReq MSHR misses
system.l2.ReadSharedReq_accesses::.cpu.data          114                       # number of ReadSharedReq accesses(hits+misses)
system.l2.ReadSharedReq_accesses::total           114                       # number of ReadSharedReq accesses(hits+misses)
system.l2.ReadSharedReq_avg_miss_latency::.cpu.data 100368.932039                       # average ReadSharedReq miss latency
system.l2.ReadSharedReq_avg_miss_latency::total 100368.932039                       # average ReadSharedReq miss latency
system.l2.ReadSharedReq_avg_mshr_miss_latency::.cpu.data 81121.212121                       # average ReadSharedReq mshr miss latency
system.l2.ReadSharedReq_avg_mshr_miss_latency::total 81121.212121                       # average ReadSharedReq mshr miss latency
system.l2.ReadSharedReq_hits::.cpu.data            11                       # number of ReadSharedReq hits
system.l2.ReadSharedReq_hits::total                11                       # number of ReadSharedReq hits
system.l2.ReadSharedReq_miss_latency::.cpu.data     10338000                       # number of ReadSharedReq miss cycles
system.l2.ReadSharedReq_miss_latency::total     10338000                       # number of ReadSharedReq miss cycles
system.l2.ReadSharedReq_miss_rate::.cpu.data     0.903509                       # miss rate for ReadSharedReq accesses
system.l2.ReadSharedReq_miss_rate::total     0.903509                       # miss rate for ReadSharedReq accesses
system.l2.ReadSharedReq_misses::.cpu.data          103                       # number of ReadSharedReq misses
system.l2.ReadSharedReq_misses::total             103                       # number of ReadSharedReq misses
system.l2.ReadSharedReq_mshr_hits::.cpu.data            4                       # number of ReadSharedReq MSHR hits
system.l2.ReadSharedReq_mshr_hits::total            4                       # number of ReadSharedReq MSHR hits
system.l2.ReadSharedReq_mshr_miss_latency::.cpu.data      8031000                       # number of ReadSharedReq MSHR miss cycles
system.l2.ReadSharedReq_mshr_miss_latency::total      8031000                       # number of ReadSharedReq MSHR miss cycles
system.l2.ReadSharedReq_mshr_miss_rate::.cpu.data     0.868421                       # mshr miss rate for ReadSharedReq accesses
system.l2.ReadSharedReq_mshr_miss_rate::total     0.868421                       # mshr miss rate for ReadSharedReq accesses
system.l2.ReadSharedReq_mshr_misses::.cpu.data           99                       # number of ReadSharedReq MSHR misses
system.l2.ReadSharedReq_mshr_misses::total           99                       # number of ReadSharedReq MSHR misses
system.l2.WritebackClean_accesses::.writebacks           54                       # number of WritebackClean accesses(hits+misses)
system.l2.WritebackClean_accesses::total           54                       # number of WritebackClean accesses(hits+misses)
system.l2.WritebackClean_hits::.writebacks           54                       # number of WritebackClean hits
system.l2.WritebackClean_hits::total               54                       # number of WritebackClean hits
system.l2.WritebackDirty_accesses::.writebacks      1485815                       # number of WritebackDirty accesses(hits+misses)
system.l2.WritebackDirty_accesses::total      1485815                       # number of WritebackDirty accesses(hits+misses)
system.l2.WritebackDirty_hits::.writebacks      1485815                       # number of WritebackDirty hits
system.l2.WritebackDirty_hits::total          1485815                       # number of WritebackDirty hits
system.l2.avg_blocked_cycles::no_mshrs            nan                       # average number of cycles each access was blocked
system.l2.avg_blocked_cycles::no_targets          nan                       # average number of cycles each access was blocked
system.l2.blocked::no_mshrs                         0                       # number of cycles access was blocked
system.l2.blocked::no_targets                       0                       # number of cycles access was blocked
system.l2.blocked_cycles::no_mshrs                  0                       # number of cycles access was blocked
system.l2.blocked_cycles::no_targets                0                       # number of cycles access was blocked
system.l2.demand_accesses::.cpu.inst              515                       # number of demand (read+write) accesses
system.l2.demand_accesses::.cpu.data          1487961                       # number of demand (read+write) accesses
system.l2.demand_accesses::total              1488476                       # number of demand (read+write) accesses
system.l2.demand_avg_miss_latency::.cpu.inst 96851.323829                       # average overall miss latency
system.l2.demand_avg_miss_latency::.cpu.data 101283.140563                       # average overall miss latency
system.l2.demand_avg_miss_latency::total 101281.678615                       # average overall miss latency
system.l2.demand_avg_mshr_miss_latency::.cpu.inst 76851.323829                       # average overall mshr miss latency
system.l2.demand_avg_mshr_miss_latency::.cpu.data 81283.193073                       # average overall mshr miss latency
system.l2.demand_avg_mshr_miss_latency::total 81281.731105                       # average overall mshr miss latency
system.l2.demand_hits::.cpu.inst                   24                       # number of demand (read+write) hits
system.l2.demand_hits::.cpu.data                   11                       # number of demand (read+write) hits
system.l2.demand_hits::total                       35                       # number of demand (read+write) hits
system.l2.demand_miss_latency::.cpu.inst     47554000                       # number of demand (read+write) miss cycles
system.l2.demand_miss_latency::.cpu.data 150704249000                       # number of demand (read+write) miss cycles
system.l2.demand_miss_latency::total     150751803000                       # number of demand (read+write) miss cycles
system.l2.demand_miss_rate::.cpu.inst        0.953398                       # miss rate for demand accesses
system.l2.demand_miss_rate::.cpu.data        0.999993                       # miss rate for demand accesses
system.l2.demand_miss_rate::total            0.999976                       # miss rate for demand accesses
system.l2.demand_misses::.cpu.inst                491                       # number of demand (read+write) misses
system.l2.demand_misses::.cpu.data            1487950                       # number of demand (read+write) misses
system.l2.demand_misses::total                1488441                       # number of demand (read+write) misses
system.l2.demand_mshr_hits::.cpu.data               4                       # number of demand (read+write) MSHR hits
system.l2.demand_mshr_hits::total                   4                       # number of demand (read+write) MSHR hits
system.l2.demand_mshr_miss_latency::.cpu.inst     37734000                       # number of demand (read+write) MSHR miss cycles
system.l2.demand_mshr_miss_latency::.cpu.data 120945002000                       # number of demand (read+write) MSHR miss cycles
system.l2.demand_mshr_miss_latency::total 120982736000                       # number of demand (read+write) MSHR miss cycles
system.l2.demand_mshr_miss_rate::.cpu.inst     0.953398                       # mshr miss rate for demand accesses
system.l2.demand_mshr_miss_rate::.cpu.data     0.999990                       # mshr miss rate for demand accesses
system.l2.demand_mshr_miss_rate::total       0.999974                       # mshr miss rate for demand accesses
system.l2.demand_mshr_misses::.cpu.inst           491                       # number of demand (read+write) MSHR misses
system.l2.demand_mshr_misses::.cpu.data       1487946                       # number of demand (read+write) MSHR misses
system.l2.demand_mshr_misses::total           1488437                       # number of demand (read+write) MSHR misses
system.l2.overall_accesses::.cpu.inst             515                       # number of overall (read+write) accesses
system.l2.overall_accesses::.cpu.data         1487961                       # number of overall (read+write) accesses
system.l2.overall_accesses::total             1488476                       # number of overall (read+write) accesses
system.l2.overall_avg_miss_latency::.cpu.inst 96851.323829                       # average overall miss latency
system.l2.overall_avg_miss_latency::.cpu.data 101283.140563                       # average overall miss latency
system.l2.overall_avg_miss_latency::total 101281.678615                       # average overall miss latency
system.l2.overall_avg_mshr_miss_latency::.cpu.inst 76851.323829                       # average overall mshr miss latency
system.l2.overall_avg_mshr_miss_latency::.cpu.data 81283.193073                       # average overall mshr miss latency
system.l2.overall_avg_mshr_miss_latency::total 81281.731105                       # average overall mshr miss latency
system.l2.overall_hits::.cpu.inst                  24                       # number of overall hits
system.l2.overall_hits::.cpu.data                  11                       # number of overall hits
system.l2.overall_hits::total                      35                       # number of overall hits
system.l2.overall_miss_latency::.cpu.inst     47554000                       # number of overall miss cycles
system.l2.overall_miss_latency::.cpu.data 150704249000                       # number of overall miss cycles
system.l2.overall_miss_latency::total    150751803000                       # number of overall miss cycles
system.l2.overall_miss_rate::.cpu.inst       0.953398                       # miss rate for overall accesses
system.l2.overall_miss_rate::.cpu.data       0.999993                       # miss rate for overall accesses
system.l2.overall_miss_rate::total           0.999976                       # miss rate for overall accesses
system.l2.overall_misses::.cpu.inst               491                       # number of overall misses
system.l2.overall_misses::.cpu.data           1487950                       # number of overall misses
system.l2.overall_misses::total               1488441                       # number of overall misses
system.l2.overall_mshr_hits::.cpu.data              4                       # number of overall MSHR hits
system.l2.overall_mshr_hits::total                  4                       # number of overall MSHR hits
system.l2.overall_mshr_miss_latency::.cpu.inst     37734000                       # number of overall MSHR miss cycles
system.l2.overall_mshr_miss_latency::.cpu.data 120945002000                       # number of overall MSHR miss cycles
system.l2.overall_mshr_miss_latency::total 120982736000                       # number of overall MSHR miss cycles
system.l2.overall_mshr_miss_rate::.cpu.inst     0.953398                       # mshr miss rate for overall accesses
system.l2.overall_mshr_miss_rate::.cpu.data     0.999990                       # mshr miss rate for overall accesses
system.l2.overall_mshr_miss_rate::total      0.999974                       # mshr miss rate for overall accesses
system.l2.overall_mshr_misses::.cpu.inst          491                       # number of overall MSHR misses
system.l2.overall_mshr_misses::.cpu.data      1487946                       # number of overall MSHR misses
system.l2.overall_mshr_misses::total          1488437                       # number of overall MSHR misses
system.l2.pwrStateResidencyTicks::UNDEFINED 262356512000                       # Cumulative time (in ticks) in various power states
system.l2.replacements                        1455669                       # number of replacements
system.l2.tags.age_task_id_blocks_1024::0           57                       # Occupied blocks per task id
system.l2.tags.age_task_id_blocks_1024::1          509                       # Occupied blocks per task id
system.l2.tags.age_task_id_blocks_1024::2         5103                       # Occupied blocks per task id
system.l2.tags.age_task_id_blocks_1024::3        27099                       # Occupied blocks per task id
system.l2.tags.avg_refs                      1.998349                       # Average number of references to valid blocks.
system.l2.tags.data_accesses                 25283805                       # Number of data accesses
system.l2.tags.occ_blocks::.cpu.inst         9.621770                       # Average occupied blocks per requestor
system.l2.tags.occ_blocks::.cpu.data     32414.188795                       # Average occupied blocks per requestor
system.l2.tags.occ_percent::.cpu.inst        0.000294                       # Average percentage of cache occupancy
system.l2.tags.occ_percent::.cpu.data        0.989203                       # Average percentage of cache occupancy
system.l2.tags.occ_percent::total            0.989496                       # Average percentage of cache occupancy
system.l2.tags.occ_task_id_blocks::1024         32768                       # Occupied blocks per task id
system.l2.tags.occ_task_id_percent::1024            1                       # Percentage of cache occupancy per task id
system.l2.tags.pwrStateResidencyTicks::UNDEFINED 262356512000                       # Cumulative time (in ticks) in various power states
system.l2.tags.sampled_refs                   1488437                       # Sample count of references to valid blocks.
system.l2.tags.tag_accesses                  25283805                       # Number of tag accesses
system.l2.tags.tagsinuse                 32423.810565                       # Cycle average of tags in use
system.l2.tags.total_refs                     2974417                       # Total number of references to valid blocks.
system.l2.tags.warmup_cycle                     87000                       # Cycle when the warmup percentage was hit.
system.l2.writebacks::.writebacks             1455093                       # number of writebacks
system.l2.writebacks::total                   1455093                       # number of writebacks
system.mem_ctrls.avgBusLat                    5000.00                       # Average bus latency per DRAM burst
system.mem_ctrls.avgGap                      89129.88                       # Average gap between requests
system.mem_ctrls.avgMemAccLat                30016.55                       # Average memory access latency per DRAM burst
system.mem_ctrls.avgPriority_.writebacks::samples   1455093.00                       # Average QoS priority value for accepted requests
system.mem_ctrls.avgPriority_.cpu.inst::samples       491.00                       # Average QoS priority value for accepted requests
system.mem_ctrls.avgPriority_.cpu.data::samples   1487946.00                       # Average QoS priority value for accepted requests
system.mem_ctrls.avgQLat                     11266.55                       # Average queueing delay per DRAM burst
system.mem_ctrls.avgRdBW                       363.09                       # Average DRAM read bandwidth in MiByte/s
system.mem_ctrls.avgRdBWSys                    363.09                       # Average system read bandwidth in MiByte/s
system.mem_ctrls.avgRdQLen                       1.00                       # Average read queue length when enqueuing
system.mem_ctrls.avgWrBW                       354.95                       # Average achieved write bandwidth in MiByte/s
system.mem_ctrls.avgWrBWSys                    354.96                       # Average system write bandwidth in MiByte/s
system.mem_ctrls.avgWrQLen                      24.33                       # Average write queue length when enqueuing
system.mem_ctrls.busUtil                         5.61                       # Data bus utilization in percentage
system.mem_ctrls.busUtilRead                     2.84                       # Data bus utilization in percentage for reads
system.mem_ctrls.busUtilWrite                    2.77                       # Data bus utilization in percentage for writes
system.mem_ctrls.bw_inst_read::.cpu.inst       119776                       # Instruction read bandwidth from this memory (bytes/s)
system.mem_ctrls.bw_inst_read::total           119776                       # Instruction read bandwidth from this memory (bytes/s)
system.mem_ctrls.bw_read::.cpu.inst            119776                       # Total read bandwidth from this memory (bytes/s)
system.mem_ctrls.bw_read::.cpu.data         362973815                       # Total read bandwidth from this memory (bytes/s)
system.mem_ctrls.bw_read::total             363093591                       # Total read bandwidth from this memory (bytes/s)
system.mem_ctrls.bw_total::.writebacks      354959560                       # Total bandwidth to/from this memory (bytes/s)
system.mem_ctrls.bw_total::.cpu.inst           119776                       # Total bandwidth to/from this memory (bytes/s)
system.mem_ctrls.bw_total::.cpu.data        362973815                       # Total bandwidth to/from this memory (bytes/s)
system.mem_ctrls.bw_total::total            718053151                       # Total bandwidth to/from this memory (bytes/s)
system.mem_ctrls.bw_write::.writebacks      354959560                       # Write bandwidth from this memory (bytes/s)
system.mem_ctrls.bw_write::total            354959560                       # Write bandwidth from this memory (bytes/s)
system.mem_ctrls.bytesPerActivate::samples       338691                       # Bytes accessed per row activation
system.mem_ctrls.bytesPerActivate::mean    556.212571                       # Bytes accessed per row activation
system.mem_ctrls.bytesPerActivate::gmean   366.168552                       # Bytes accessed per row activation
system.mem_ctrls.bytesPerActivate::stdev   412.513604                       # Bytes accessed per row activation
system.mem_ctrls.bytesPerActivate::0-127        17995      5.31%      5.31% # Bytes accessed per row activation
system.mem_ctrls.bytesPerActivate::128-255       127215     37.56%     42.87% # Bytes accessed per row activation
system.mem_ctrls.bytesPerActivate::256-383        10452      3.09%     45.96% # Bytes accessed per row activation
system.mem_ctrls.bytesPerActivate::384-511        12517      3.70%     49.66% # Bytes accessed per row activation
system.mem_ctrls.bytesPerActivate::512-639        12641      3.73%     53.39% # Bytes accessed per row activation
system.mem_ctrls.bytesPerActivate::640-767         9273      2.74%     56.13% # Bytes accessed per row activation
system.mem_ctrls.bytesPerActivate::768-895        13504      3.99%     60.11% # Bytes accessed per row activation
system.mem_ctrls.bytesPerActivate::896-1023        12982      3.83%     63.95% # Bytes accessed per row activation
system.mem_ctrls.bytesPerActivate::1024-1151       122112     36.05%    100.00% # Bytes accessed per row activation
system.mem_ctrls.bytesPerActivate::total       338691                       # Bytes accessed per row activation
system.mem_ctrls.bytesReadDRAM               95259968                       # Total number of bytes read from DRAM
system.mem_ctrls.bytesReadSys                95259968                       # Total read bytes from the system interface side
system.mem_ctrls.bytesReadWrQ                       0                       # Total number of bytes read from write queue
system.mem_ctrls.bytesWritten                93124608                       # Total number of bytes written to DRAM
system.mem_ctrls.bytesWrittenSys             93125952                       # Total written bytes from the system interface side
system.mem_ctrls.bytes_inst_read::.cpu.inst        31424                       # Number of instructions bytes read from this memory
system.mem_ctrls.bytes_inst_read::total         31424                       # Number of instructions bytes read from this memory
system.mem_ctrls.bytes_read::.cpu.inst          31424                       # Number of bytes read from this memory
system.mem_ctrls.bytes_read::.cpu.data       95228544                       # Number of bytes read from this memory
system.mem_ctrls.bytes_read::total           95259968                       # Number of bytes read from this memory
system.mem_ctrls.bytes_written::.writebacks     93125952                       # Number of bytes written to this memory
system.mem_ctrls.bytes_written::total        93125952                       # Number of bytes written to this memory
system.mem_ctrls.masterReadAccesses::.cpu.inst          491                       # Per-master read serviced memory accesses
system.mem_ctrls.masterReadAccesses::.cpu.data      1487946                       # Per-master read serviced memory accesses
system.mem_ctrls.masterReadAvgLat::.cpu.inst     25543.79                       # Per-master read average memory access latency
system.mem_ctrls.masterReadAvgLat::.cpu.data     30018.03                       # Per-master read average memory access latency
system.mem_ctrls.masterReadBytes::.cpu.inst        31424                       # Per-master bytes read from memory
system.mem_ctrls.masterReadBytes::.cpu.data     95228544                       # Per-master bytes read from memory
[...]
system.mem_ctrls.wrQLenPdf::21                  80727                       # What write queue length does an incoming req see
system.mem_ctrls.wrQLenPdf::22                  80727                       # What write queue length does an incoming req see
system.mem_ctrls.wrQLenPdf::23                  83915                       # What write queue length does an incoming req see
system.mem_ctrls.wrQLenPdf::24                  80727                       # What write queue length does an incoming req see
system.mem_ctrls.wrQLenPdf::25                  80727                       # What write queue length does an incoming req see
system.mem_ctrls.wrQLenPdf::26                  80727                       # What write queue length does an incoming req see
system.mem_ctrls.wrQLenPdf::27                  80727                       # What write queue length does an incoming req see
system.mem_ctrls.wrQLenPdf::28                  80727                       # What write queue length does an incoming req see
system.mem_ctrls.wrQLenPdf::29                  80727                       # What write queue length does an incoming req see
system.mem_ctrls.wrQLenPdf::30                  80727                       # What write queue length does an incoming req see
system.mem_ctrls.wrQLenPdf::31                  80727                       # What write queue length does an incoming req see
system.mem_ctrls.wrQLenPdf::32                  80727                       # What write queue length does an incoming req see
system.mem_ctrls.wrQLenPdf::33                      0                       # What write queue length does an incoming req see
system.mem_ctrls.wrQLenPdf::34                      0                       # What write queue length does an incoming req see
system.mem_ctrls.wrQLenPdf::35                      0                       # What write queue length does an incoming req see
system.mem_ctrls.wrQLenPdf::36                      0                       # What write queue length does an incoming req see
system.mem_ctrls.wrQLenPdf::37                      0                       # What write queue length does an incoming req see
system.mem_ctrls.wrQLenPdf::38                      0                       # What write queue length does an incoming req see
system.mem_ctrls.wrQLenPdf::39                      0                       # What write queue length does an incoming req see
system.mem_ctrls.wrQLenPdf::40                      0                       # What write queue length does an incoming req see
system.mem_ctrls.wrQLenPdf::41                      0                       # What write queue length does an incoming req see
system.mem_ctrls.wrQLenPdf::42                      0                       # What write queue length does an incoming req see
system.mem_ctrls.wrQLenPdf::43                      0                       # What write queue length does an incoming req see
system.mem_ctrls.wrQLenPdf::44                      0                       # What write queue length does an incoming req see
system.mem_ctrls.wrQLenPdf::45                      0                       # What write queue length does an incoming req see
system.mem_ctrls.wrQLenPdf::46                      0                       # What write queue length does an incoming req see
system.mem_ctrls.wrQLenPdf::47                      0                       # What write queue length does an incoming req see
system.mem_ctrls.wrQLenPdf::48                      0                       # What write queue length does an incoming req see
system.mem_ctrls.wrQLenPdf::49                      0                       # What write queue length does an incoming req see
system.mem_ctrls.wrQLenPdf::50                      0                       # What write queue length does an incoming req see
system.mem_ctrls.wrQLenPdf::51                      0                       # What write queue length does an incoming req see
system.mem_ctrls.wrQLenPdf::52                      0                       # What write queue length does an incoming req see
system.mem_ctrls.wrQLenPdf::53                      0                       # What write queue length does an incoming req see
system.mem_ctrls.wrQLenPdf::54                      0                       # What write queue length does an incoming req see
system.mem_ctrls.wrQLenPdf::55                      0                       # What write queue length does an incoming req see
system.mem_ctrls.wrQLenPdf::56                      0                       # What write queue length does an incoming req see
system.mem_ctrls.wrQLenPdf::57                      0                       # What write queue length does an incoming req see
system.mem_ctrls.wrQLenPdf::58                      0                       # What write queue length does an incoming req see
system.mem_ctrls.wrQLenPdf::59                      0                       # What write queue length does an incoming req see
system.mem_ctrls.wrQLenPdf::60                      0                       # What write queue length does an incoming req see
system.mem_ctrls.wrQLenPdf::61                      0                       # What write queue length does an incoming req see
system.mem_ctrls.wrQLenPdf::62                      0                       # What write queue length does an incoming req see
system.mem_ctrls.wrQLenPdf::63                      0                       # What write queue length does an incoming req see
system.mem_ctrls.writeBursts                  1455093                       # Number of DRAM write bursts, including those merged in the write queue
system.mem_ctrls.writePktSize::0                    0                       # Write request sizes (log2)
system.mem_ctrls.writePktSize::1                    0                       # Write request sizes (log2)
system.mem_ctrls.writePktSize::2                    0                       # Write request sizes (log2)
system.mem_ctrls.writePktSize::3                    0                       # Write request sizes (log2)
system.mem_ctrls.writePktSize::4                    0                       # Write request sizes (log2)
system.mem_ctrls.writePktSize::5                    0                       # Write request sizes (log2)
system.mem_ctrls.writePktSize::6              1455093                       # Write request sizes (log2)
system.mem_ctrls.writeReqs                    1455093                       # Number of write requests accepted
system.mem_ctrls.writeRowHitRate                88.83                       # Row buffer hit rate for writes
system.mem_ctrls.writeRowHits                 1292502                       # Number of row buffer hits during writes
system.mem_ctrls_0.actBackEnergy          61731592230                       # Energy for active background per rank (pJ)
system.mem_ctrls_0.actEnergy               1209673080                       # Energy for activate commands per rank (pJ)
system.mem_ctrls_0.actPowerDownEnergy               0                       # Energy for active power-down per rank (pJ)
system.mem_ctrls_0.averagePower            541.892577                       # Core power per rank (mW)
system.mem_ctrls_0.memoryStateTime::IDLE 124856883000                       # Time in different power states
system.mem_ctrls_0.memoryStateTime::REF    8760440000                       # Time in different power states
system.mem_ctrls_0.memoryStateTime::SREF            0                       # Time in different power states
system.mem_ctrls_0.memoryStateTime::PRE_PDN            0                       # Time in different power states
system.mem_ctrls_0.memoryStateTime::ACT  128739189000                       # Time in different power states
system.mem_ctrls_0.memoryStateTime::ACT_PDN            0                       # Time in different power states
system.mem_ctrls_0.preBackEnergy          48760402080                       # Energy for precharge background per rank (pJ)
system.mem_ctrls_0.preEnergy                642956490                       # Energy for precharge commands per rank (pJ)
system.mem_ctrls_0.prePowerDownEnergy               0                       # Energy for precharge power-down per rank (pJ)
system.mem_ctrls_0.readEnergy              5315694300                       # Energy for read commands per rank (pJ)
system.mem_ctrls_0.refreshEnergy         20709680160.000004                       # Energy for refresh commands per rank (pJ)
system.mem_ctrls_0.selfRefreshEnergy                0                       # Energy for self refresh per rank (pJ)
system.mem_ctrls_0.totalEnergy           142169046480                       # Total energy per rank (pJ)
system.mem_ctrls_0.totalIdleTime                    0                       # Total Idle time Per DRAM Rank
system.mem_ctrls_0.writeEnergy             3799048140                       # Energy for write commands per rank (pJ)
system.mem_ctrls_1.actBackEnergy          61686557100                       # Energy for active background per rank (pJ)
system.mem_ctrls_1.actEnergy               1208587800                       # Energy for activate commands per rank (pJ)
system.mem_ctrls_1.actPowerDownEnergy               0                       # Energy for active power-down per rank (pJ)
system.mem_ctrls_1.averagePower            541.834086                       # Core power per rank (mW)
system.mem_ctrls_1.memoryStateTime::IDLE 124956199250                       # Time in different power states
system.mem_ctrls_1.memoryStateTime::REF    8760440000                       # Time in different power states
system.mem_ctrls_1.memoryStateTime::SREF            0                       # Time in different power states
system.mem_ctrls_1.memoryStateTime::PRE_PDN            0                       # Time in different power states
system.mem_ctrls_1.memoryStateTime::ACT  128639872750                       # Time in different power states
system.mem_ctrls_1.memoryStateTime::ACT_PDN            0                       # Time in different power states
system.mem_ctrls_1.preBackEnergy          48798326400                       # Energy for precharge background per rank (pJ)
system.mem_ctrls_1.preEnergy                642375855                       # Energy for precharge commands per rank (pJ)
system.mem_ctrls_1.prePowerDownEnergy               0                       # Energy for precharge power-down per rank (pJ)
system.mem_ctrls_1.readEnergy              5311745880                       # Energy for read commands per rank (pJ)
system.mem_ctrls_1.refreshEnergy         20709680160.000004                       # Energy for refresh commands per rank (pJ)
system.mem_ctrls_1.selfRefreshEnergy                0                       # Energy for self refresh per rank (pJ)
system.mem_ctrls_1.totalEnergy           142153700895                       # Total energy per rank (pJ)
system.mem_ctrls_1.totalIdleTime                    0                       # Total Idle time Per DRAM Rank
system.mem_ctrls_1.writeEnergy             3796427700                       # Energy for write commands per rank (pJ)
system.membus.pkt_count_system.l2.mem_side::system.mem_ctrls.port      4432085                       # Packet count per connected master and slave (bytes)
system.membus.pkt_count::total                4432085                       # Packet count per connected master and slave (bytes)
system.membus.pkt_size_system.l2.mem_side::system.mem_ctrls.port    188385920                       # Cumulative packet size per connected master and slave (bytes)
system.membus.pkt_size::total               188385920                       # Cumulative packet size per connected master and slave (bytes)
system.membus.pwrStateResidencyTicks::UNDEFINED 262356512000                       # Cumulative time (in ticks) in various power states
system.membus.reqLayer0.occupancy          8764020000                       # Layer occupancy (ticks)
system.membus.reqLayer0.utilization               3.3                       # Layer utilization (%)
system.membus.respLayer1.occupancy         7836879000                       # Layer occupancy (ticks)
system.membus.respLayer1.utilization              3.0                       # Layer utilization (%)
system.membus.snoopTraffic                          0                       # Total snoop traffic (bytes)
system.membus.snoop_fanout::samples           1488437                       # Request fanout histogram
system.membus.snoop_fanout::mean                    0                       # Request fanout histogram
system.membus.snoop_fanout::stdev                   0                       # Request fanout histogram
system.membus.snoop_fanout::underflows              0      0.00%      0.00% # Request fanout histogram
system.membus.snoop_fanout::0                 1488437    100.00%    100.00% # Request fanout histogram
system.membus.snoop_fanout::1                       0      0.00%    100.00% # Request fanout histogram
system.membus.snoop_fanout::overflows               0      0.00%    100.00% # Request fanout histogram
system.membus.snoop_fanout::min_value               0                       # Request fanout histogram
system.membus.snoop_fanout::max_value               0                       # Request fanout histogram
system.membus.snoop_fanout::total             1488437                       # Request fanout histogram
system.membus.snoop_filter.hit_multi_requests            0                       # Number of requests hitting in the snoop filter with multiple (>1) holders of the requested data.
system.membus.snoop_filter.hit_multi_snoops            0                       # Number of snoops hitting in the snoop filter with multiple (>1) holders of the requested data.
system.membus.snoop_filter.hit_single_requests      1455211                       # Number of requests hitting in the snoop filter with a single holder of the requested data.
system.membus.snoop_filter.hit_single_snoops            0                       # Number of snoops hitting in the snoop filter with a single holder of the requested data.
system.membus.snoop_filter.tot_requests       2943648                       # Total number of requests made to the snoop filter.
system.membus.snoop_filter.tot_snoops               0                       # Total number of snoops made to the snoop filter.
system.membus.snoops                                0                       # Total snoops (count)
system.membus.trans_dist::ReadResp                590                       # Transaction distribution
system.membus.trans_dist::WritebackDirty      1455093                       # Transaction distribution
system.membus.trans_dist::CleanEvict              118                       # Transaction distribution
system.membus.trans_dist::ReadExReq           1487847                       # Transaction distribution
system.membus.trans_dist::ReadExResp          1487847                       # Transaction distribution
system.membus.trans_dist::ReadSharedReq           590                       # Transaction distribution
system.tol2bus.pkt_count_system.cpu.icache.mem_side::system.l2.cpu_side         1088                       # Packet count per connected master and slave (bytes)
system.tol2bus.pkt_count_system.cpu.dcache.mem_side::system.l2.cpu_side      4461835                       # Packet count per connected master and slave (bytes)
system.tol2bus.pkt_count::total               4462923                       # Packet count per connected master and slave (bytes)
system.tol2bus.pkt_size_system.cpu.icache.mem_side::system.l2.cpu_side        36672                       # Cumulative packet size per connected master and slave (bytes)
system.tol2bus.pkt_size_system.cpu.dcache.mem_side::system.l2.cpu_side    190321664                       # Cumulative packet size per connected master and slave (bytes)
system.tol2bus.pkt_size::total              190358336                       # Cumulative packet size per connected master and slave (bytes)
system.tol2bus.pwrStateResidencyTicks::UNDEFINED 262356512000                       # Cumulative time (in ticks) in various power states
system.tol2bus.reqLayer0.occupancy         5946193000                       # Layer occupancy (ticks)
system.tol2bus.reqLayer0.utilization              2.3                       # Layer utilization (%)
system.tol2bus.respLayer0.occupancy           1545000                       # Layer occupancy (ticks)
system.tol2bus.respLayer0.utilization             0.0                       # Layer utilization (%)
system.tol2bus.respLayer1.occupancy        4463886996                       # Layer occupancy (ticks)
system.tol2bus.respLayer1.utilization             1.7                       # Layer utilization (%)
system.tol2bus.snoopTraffic                  93125952                       # Total snoop traffic (bytes)
system.tol2bus.snoop_fanout::samples          2944145                       # Request fanout histogram
system.tol2bus.snoop_fanout::mean            0.000165                       # Request fanout histogram
system.tol2bus.snoop_fanout::stdev           0.012873                       # Request fanout histogram
system.tol2bus.snoop_fanout::underflows             0      0.00%      0.00% # Request fanout histogram
system.tol2bus.snoop_fanout::0                2943660     99.98%     99.98% # Request fanout histogram
system.tol2bus.snoop_fanout::1                    484      0.02%    100.00% # Request fanout histogram
system.tol2bus.snoop_fanout::2                      1      0.00%    100.00% # Request fanout histogram
system.tol2bus.snoop_fanout::overflows              0      0.00%    100.00% # Request fanout histogram
system.tol2bus.snoop_fanout::min_value              0                       # Request fanout histogram
system.tol2bus.snoop_fanout::max_value              2                       # Request fanout histogram
system.tol2bus.snoop_fanout::total            2944145                       # Request fanout histogram
system.tol2bus.snoop_filter.hit_multi_requests           26                       # Number of requests hitting in the snoop filter with multiple (>1) holders of the requested data.
system.tol2bus.snoop_filter.hit_multi_snoops            1                       # Number of snoops hitting in the snoop filter with multiple (>1) holders of the requested data.
system.tol2bus.snoop_filter.hit_single_requests      1485972                       # Number of requests hitting in the snoop filter with a single holder of the requested data.
system.tol2bus.snoop_filter.hit_single_snoops          457                       # Number of snoops hitting in the snoop filter with a single holder of the requested data.
system.tol2bus.snoop_filter.tot_requests      2974447                       # Total number of requests made to the snoop filter.
system.tol2bus.snoop_filter.tot_snoops            458                       # Total number of snoops made to the snoop filter.
system.tol2bus.snoops                         1455669                       # Total snoops (count)
system.tol2bus.trans_dist::ReadResp               629                       # Transaction distribution
system.tol2bus.trans_dist::WritebackDirty      2940908                       # Transaction distribution
system.tol2bus.trans_dist::WritebackClean           58                       # Transaction distribution
system.tol2bus.trans_dist::CleanEvict             674                       # Transaction distribution
system.tol2bus.trans_dist::ReadExReq          1487847                       # Transaction distribution
system.tol2bus.trans_dist::ReadExResp         1487847                       # Transaction distribution
system.tol2bus.trans_dist::ReadCleanReq           515                       # Transaction distribution
system.tol2bus.trans_dist::ReadSharedReq          114                       # Transaction distribution
system.voltage_domain.voltage                       1                       # Voltage in Volts

---------- End Simulation Statistics   ----------
