
---------- Begin Simulation Statistics ----------
final_tick                                59431269000                       # Number of ticks from beginning of simulation (restored from checkpoints and never reset)
host_inst_rate                                 228567                       # Simulator instruction rate (inst/s)
host_mem_usage                                 739564                       # Number of bytes of host memory used
host_op_rate                                   231098                       # Simulator op (including micro ops) rate (op/s)
host_seconds                                   437.51                       # Real time elapsed on the host
host_tick_rate                              135840455                       # Simulator tick rate (ticks/s)
sim_freq                                 1000000000000                       # Frequency of simulated ticks
sim_insts                                   100000000                       # Number of instructions simulated
sim_ops                                     101106982                       # Number of ops (including micro ops) simulated
sim_seconds                                  0.059431                       # Number of seconds simulated
sim_ticks                                 59431269000                       # Number of ticks simulated
system.clk_domain.clock                          1000                       # Clock period in ticks
system.cpu.branchPred.BTBCorrect                    0                       # Number of correct BTB predictions (this stat may not work properly.
system.cpu.branchPred.BTBHitPct             84.337359                       # BTB Hit Percentage
system.cpu.branchPred.BTBHits                 4066276                       # Number of BTB hits
system.cpu.branchPred.BTBLookups              4821441                       # Number of BTB lookups
system.cpu.branchPred.RASInCorrect                 18                       # Number of incorrect RAS predictions.
system.cpu.branchPred.condIncorrect            351363                       # Number of conditional branches incorrect
system.cpu.branchPred.condPredicted           5036684                       # Number of conditional branches predicted
system.cpu.branchPred.indirectHits             102876                       # Number of indirect target hits.
system.cpu.branchPred.indirectLookups          675280                       # Number of indirect predictor lookups.
system.cpu.branchPred.indirectMisses           572404                       # Number of indirect misses.
system.cpu.branchPred.lookups                 6441792                       # Number of BP lookups
system.cpu.branchPred.usedRAS                  311350                       # Number of times the RAS was used to get a target.
system.cpu.branchPredindirectMispredicted        37861                       # Number of mispredicted indirect branches.
system.cpu.committedInsts                   100000000                       # Number of instructions committed
system.cpu.committedOps                     101106982                       # Number of ops (including micro ops) committed
system.cpu.cpi                               1.188625                       # CPI: cycles per instruction
system.cpu.dcache.LoadLockedReq_accesses::.cpu.data          166                       # number of LoadLockedReq accesses(hits+misses)
system.cpu.dcache.LoadLockedReq_accesses::total          166                       # number of LoadLockedReq accesses(hits+misses)
system.cpu.dcache.LoadLockedReq_hits::.cpu.data          166                       # number of LoadLockedReq hits
system.cpu.dcache.LoadLockedReq_hits::total          166                       # number of LoadLockedReq hits
system.cpu.dcache.ReadReq_accesses::.cpu.data     37543097                       # number of ReadReq accesses(hits+misses)
system.cpu.dcache.ReadReq_accesses::total     37543097                       # number of ReadReq accesses(hits+misses)
system.cpu.dcache.ReadReq_avg_miss_latency::.cpu.data 16563.650890                       # average ReadReq miss latency
system.cpu.dcache.ReadReq_avg_miss_latency::total 16563.650890                       # average ReadReq miss latency
system.cpu.dcache.ReadReq_avg_mshr_miss_latency::.cpu.data 15450.904787                       # average ReadReq mshr miss latency
system.cpu.dcache.ReadReq_avg_mshr_miss_latency::total 15450.904787                       # average ReadReq mshr miss latency
system.cpu.dcache.ReadReq_hits::.cpu.data     37529955                       # number of ReadReq hits
system.cpu.dcache.ReadReq_hits::total        37529955                       # number of ReadReq hits
system.cpu.dcache.ReadReq_miss_latency::.cpu.data    217679500                       # number of ReadReq miss cycles
system.cpu.dcache.ReadReq_miss_latency::total    217679500                       # number of ReadReq miss cycles
system.cpu.dcache.ReadReq_miss_rate::.cpu.data     0.000350                       # miss rate for ReadReq accesses
system.cpu.dcache.ReadReq_miss_rate::total     0.000350                       # miss rate for ReadReq accesses
system.cpu.dcache.ReadReq_misses::.cpu.data        13142                       # number of ReadReq misses
system.cpu.dcache.ReadReq_misses::total         13142                       # number of ReadReq misses
system.cpu.dcache.ReadReq_mshr_hits::.cpu.data           45                       # number of ReadReq MSHR hits
system.cpu.dcache.ReadReq_mshr_hits::total           45                       # number of ReadReq MSHR hits
system.cpu.dcache.ReadReq_mshr_miss_latency::.cpu.data    202360500                       # number of ReadReq MSHR miss cycles
system.cpu.dcache.ReadReq_mshr_miss_latency::total    202360500                       # number of ReadReq MSHR miss cycles
system.cpu.dcache.ReadReq_mshr_miss_rate::.cpu.data     0.000349                       # mshr miss rate for ReadReq accesses
system.cpu.dcache.ReadReq_mshr_miss_rate::total     0.000349                       # mshr miss rate for ReadReq accesses
system.cpu.dcache.ReadReq_mshr_misses::.cpu.data        13097                       # number of ReadReq MSHR misses
system.cpu.dcache.ReadReq_mshr_misses::total        13097                       # number of ReadReq MSHR misses
system.cpu.dcache.SoftPFReq_accesses::.cpu.data         8714                       # number of SoftPFReq accesses(hits+misses)
system.cpu.dcache.SoftPFReq_accesses::total         8714                       # number of SoftPFReq accesses(hits+misses)
system.cpu.dcache.SoftPFReq_avg_mshr_miss_latency::.cpu.data 53470.802920                       # average SoftPFReq mshr miss latency
system.cpu.dcache.SoftPFReq_avg_mshr_miss_latency::total 53470.802920                       # average SoftPFReq mshr miss latency
system.cpu.dcache.SoftPFReq_hits::.cpu.data         8566                       # number of SoftPFReq hits
system.cpu.dcache.SoftPFReq_hits::total          8566                       # number of SoftPFReq hits
system.cpu.dcache.SoftPFReq_miss_rate::.cpu.data     0.016984                       # miss rate for SoftPFReq accesses
system.cpu.dcache.SoftPFReq_miss_rate::total     0.016984                       # miss rate for SoftPFReq accesses
system.cpu.dcache.SoftPFReq_misses::.cpu.data          148                       # number of SoftPFReq misses
system.cpu.dcache.SoftPFReq_misses::total          148                       # number of SoftPFReq misses
system.cpu.dcache.SoftPFReq_mshr_miss_latency::.cpu.data      7325500                       # number of SoftPFReq MSHR miss cycles
system.cpu.dcache.SoftPFReq_mshr_miss_latency::total      7325500                       # number of SoftPFReq MSHR miss cycles
system.cpu.dcache.SoftPFReq_mshr_miss_rate::.cpu.data     0.015722                       # mshr miss rate for SoftPFReq accesses
system.cpu.dcache.SoftPFReq_mshr_miss_rate::total     0.015722                       # mshr miss rate for SoftPFReq accesses
system.cpu.dcache.SoftPFReq_mshr_misses::.cpu.data          137                       # number of SoftPFReq MSHR misses
system.cpu.dcache.SoftPFReq_mshr_misses::total          137                       # number of SoftPFReq MSHR misses
system.cpu.dcache.StoreCondReq_accesses::.cpu.data          166                       # number of StoreCondReq accesses(hits+misses)
system.cpu.dcache.StoreCondReq_accesses::total          166                       # number of StoreCondReq accesses(hits+misses)
system.cpu.dcache.StoreCondReq_hits::.cpu.data          166                       # number of StoreCondReq hits
system.cpu.dcache.StoreCondReq_hits::total          166                       # number of StoreCondReq hits
system.cpu.dcache.WriteReq_accesses::.cpu.data      6318651                       # number of WriteReq accesses(hits+misses)
system.cpu.dcache.WriteReq_accesses::total      6318651                       # number of WriteReq accesses(hits+misses)
system.cpu.dcache.WriteReq_avg_miss_latency::.cpu.data 19838.163793                       # average WriteReq miss latency
system.cpu.dcache.WriteReq_avg_miss_latency::total 19838.163793                       # average WriteReq miss latency
system.cpu.dcache.WriteReq_avg_mshr_miss_latency::.cpu.data 16653.478236                       # average WriteReq mshr miss latency
system.cpu.dcache.WriteReq_avg_mshr_miss_latency::total 16653.478236                       # average WriteReq mshr miss latency
system.cpu.dcache.WriteReq_hits::.cpu.data      6260651                       # number of WriteReq hits
system.cpu.dcache.WriteReq_hits::total        6260651                       # number of WriteReq hits
system.cpu.dcache.WriteReq_miss_latency::.cpu.data   1150613500                       # number of WriteReq miss cycles
system.cpu.dcache.WriteReq_miss_latency::total   1150613500                       # number of WriteReq miss cycles
system.cpu.dcache.WriteReq_miss_rate::.cpu.data     0.009179                       # miss rate for WriteReq accesses
system.cpu.dcache.WriteReq_miss_rate::total     0.009179                       # miss rate for WriteReq accesses
system.cpu.dcache.WriteReq_misses::.cpu.data        58000                       # number of WriteReq misses
system.cpu.dcache.WriteReq_misses::total        58000                       # number of WriteReq misses
system.cpu.dcache.WriteReq_mshr_hits::.cpu.data         4999                       # number of WriteReq MSHR hits
system.cpu.dcache.WriteReq_mshr_hits::total         4999                       # number of WriteReq MSHR hits
system.cpu.dcache.WriteReq_mshr_miss_latency::.cpu.data    882651000                       # number of WriteReq MSHR miss cycles
system.cpu.dcache.WriteReq_mshr_miss_latency::total    882651000                       # number of WriteReq MSHR miss cycles
system.cpu.dcache.WriteReq_mshr_miss_rate::.cpu.data     0.008388                       # mshr miss rate for WriteReq accesses
system.cpu.dcache.WriteReq_mshr_miss_rate::total     0.008388                       # mshr miss rate for WriteReq accesses
system.cpu.dcache.WriteReq_mshr_misses::.cpu.data        53001                       # number of WriteReq MSHR misses
system.cpu.dcache.WriteReq_mshr_misses::total        53001                       # number of WriteReq MSHR misses
system.cpu.dcache.avg_blocked_cycles::no_mshrs          111                       # average number of cycles each access was blocked
system.cpu.dcache.avg_blocked_cycles::no_targets          nan                       # average number of cycles each access was blocked
system.cpu.dcache.blocked::no_mshrs                 3                       # number of cycles access was blocked
system.cpu.dcache.blocked::no_targets               0                       # number of cycles access was blocked
system.cpu.dcache.blocked_cycles::no_mshrs          333                       # number of cycles access was blocked
system.cpu.dcache.blocked_cycles::no_targets            0                       # number of cycles access was blocked
system.cpu.dcache.demand_accesses::.cpu.data     43861748                       # number of demand (read+write) accesses
system.cpu.dcache.demand_accesses::total     43861748                       # number of demand (read+write) accesses
system.cpu.dcache.demand_avg_miss_latency::.cpu.data 19233.265863                       # average overall miss latency
system.cpu.dcache.demand_avg_miss_latency::total 19233.265863                       # average overall miss latency
system.cpu.dcache.demand_avg_mshr_miss_latency::.cpu.data 16415.194106                       # average overall mshr miss latency
system.cpu.dcache.demand_avg_mshr_miss_latency::total 16415.194106                       # average overall mshr miss latency
system.cpu.dcache.demand_hits::.cpu.data     43790606                       # number of demand (read+write) hits
system.cpu.dcache.demand_hits::total         43790606                       # number of demand (read+write) hits
system.cpu.dcache.demand_miss_latency::.cpu.data   1368293000                       # number of demand (read+write) miss cycles
system.cpu.dcache.demand_miss_latency::total   1368293000                       # number of demand (read+write) miss cycles
system.cpu.dcache.demand_miss_rate::.cpu.data     0.001622                       # miss rate for demand accesses
system.cpu.dcache.demand_miss_rate::total     0.001622                       # miss rate for demand accesses
system.cpu.dcache.demand_misses::.cpu.data        71142                       # number of demand (read+write) misses
system.cpu.dcache.demand_misses::total          71142                       # number of demand (read+write) misses
system.cpu.dcache.demand_mshr_hits::.cpu.data         5044                       # number of demand (read+write) MSHR hits
system.cpu.dcache.demand_mshr_hits::total         5044                       # number of demand (read+write) MSHR hits
system.cpu.dcache.demand_mshr_miss_latency::.cpu.data   1085011500                       # number of demand (read+write) MSHR miss cycles
system.cpu.dcache.demand_mshr_miss_latency::total   1085011500                       # number of demand (read+write) MSHR miss cycles
system.cpu.dcache.demand_mshr_miss_rate::.cpu.data     0.001507                       # mshr miss rate for demand accesses
system.cpu.dcache.demand_mshr_miss_rate::total     0.001507                       # mshr miss rate for demand accesses
system.cpu.dcache.demand_mshr_misses::.cpu.data        66098                       # number of demand (read+write) MSHR misses
system.cpu.dcache.demand_mshr_misses::total        66098                       # number of demand (read+write) MSHR misses
system.cpu.dcache.overall_accesses::.cpu.data     43870462                       # number of overall (read+write) accesses
system.cpu.dcache.overall_accesses::total     43870462                       # number of overall (read+write) accesses
system.cpu.dcache.overall_avg_miss_latency::.cpu.data 19193.337074                       # average overall miss latency
system.cpu.dcache.overall_avg_miss_latency::total 19193.337074                       # average overall miss latency
system.cpu.dcache.overall_avg_mshr_miss_latency::.cpu.data 16491.839662                       # average overall mshr miss latency
system.cpu.dcache.overall_avg_mshr_miss_latency::total 16491.839662                       # average overall mshr miss latency
system.cpu.dcache.overall_hits::.cpu.data     43799172                       # number of overall hits
system.cpu.dcache.overall_hits::total        43799172                       # number of overall hits
system.cpu.dcache.overall_miss_latency::.cpu.data   1368293000                       # number of overall miss cycles
system.cpu.dcache.overall_miss_latency::total   1368293000                       # number of overall miss cycles
system.cpu.dcache.overall_miss_rate::.cpu.data     0.001625                       # miss rate for overall accesses
system.cpu.dcache.overall_miss_rate::total     0.001625                       # miss rate for overall accesses
system.cpu.dcache.overall_misses::.cpu.data        71290                       # number of overall misses
system.cpu.dcache.overall_misses::total         71290                       # number of overall misses
system.cpu.dcache.overall_mshr_hits::.cpu.data         5044                       # number of overall MSHR hits
system.cpu.dcache.overall_mshr_hits::total         5044                       # number of overall MSHR hits
system.cpu.dcache.overall_mshr_miss_latency::.cpu.data   1092337000                       # number of overall MSHR miss cycles
system.cpu.dcache.overall_mshr_miss_latency::total   1092337000                       # number of overall MSHR miss cycles
system.cpu.dcache.overall_mshr_miss_rate::.cpu.data     0.001510                       # mshr miss rate for overall accesses
system.cpu.dcache.overall_mshr_miss_rate::total     0.001510                       # mshr miss rate for overall accesses
system.cpu.dcache.overall_mshr_misses::.cpu.data        66235                       # number of overall MSHR misses
system.cpu.dcache.overall_mshr_misses::total        66235                       # number of overall MSHR misses
system.cpu.dcache.pwrStateResidencyTicks::UNDEFINED  59431269000                       # Cumulative time (in ticks) in various power states
system.cpu.dcache.replacements                  65211                       # number of replacements
system.cpu.dcache.tags.age_task_id_blocks_1024::0           15                       # Occupied blocks per task id
system.cpu.dcache.tags.age_task_id_blocks_1024::1          101                       # Occupied blocks per task id
system.cpu.dcache.tags.age_task_id_blocks_1024::2          602                       # Occupied blocks per task id
system.cpu.dcache.tags.age_task_id_blocks_1024::3          274                       # Occupied blocks per task id
system.cpu.dcache.tags.age_task_id_blocks_1024::4           32                       # Occupied blocks per task id
system.cpu.dcache.tags.avg_refs            662.274311                       # Average number of references to valid blocks.
system.cpu.dcache.tags.data_accesses         87807823                       # Number of data accesses
system.cpu.dcache.tags.occ_blocks::.cpu.data  1015.181238                       # Average occupied blocks per requestor
system.cpu.dcache.tags.occ_percent::.cpu.data     0.991388                       # Average percentage of cache occupancy
system.cpu.dcache.tags.occ_percent::total     0.991388                       # Average percentage of cache occupancy
system.cpu.dcache.tags.occ_task_id_blocks::1024         1024                       # Occupied blocks per task id
system.cpu.dcache.tags.occ_task_id_percent::1024            1                       # Percentage of cache occupancy per task id
system.cpu.dcache.tags.pwrStateResidencyTicks::UNDEFINED  59431269000                       # Cumulative time (in ticks) in various power states
system.cpu.dcache.tags.sampled_refs             66235                       # Sample count of references to valid blocks.
system.cpu.dcache.tags.tag_accesses          87807823                       # Number of tag accesses
system.cpu.dcache.tags.tagsinuse          1015.181238                       # Cycle average of tags in use
system.cpu.dcache.tags.total_refs            43865739                       # Total number of references to valid blocks.
system.cpu.dcache.tags.warmup_cycle            176500                       # Cycle when the warmup percentage was hit.
system.cpu.dcache.writebacks::.writebacks        63172                       # number of writebacks
system.cpu.dcache.writebacks::total             63172                       # number of writebacks
system.cpu.discardedOps                        979317                       # Number of ops (including micro ops) which were discarded before commit
system.cpu.dstage2_mmu.stage2_tlb.accesses            0                       # DTB accesses
system.cpu.dstage2_mmu.stage2_tlb.align_faults            0                       # Number of TLB faults due to alignment restrictions
system.cpu.dstage2_mmu.stage2_tlb.domain_faults            0                       # Number of TLB faults due to domain restrictions
system.cpu.dstage2_mmu.stage2_tlb.flush_entries            0                       # Number of entries that have been flushed from TLB
system.cpu.dstage2_mmu.stage2_tlb.flush_tlb            0                       # Number of times complete TLB was flushed
system.cpu.dstage2_mmu.stage2_tlb.flush_tlb_asid            0                       # Number of times TLB was flushed by ASID
system.cpu.dstage2_mmu.stage2_tlb.flush_tlb_mva            0                       # Number of times TLB was flushed by MVA
system.cpu.dstage2_mmu.stage2_tlb.flush_tlb_mva_asid            0                       # Number of times TLB was flushed by MVA & ASID
system.cpu.dstage2_mmu.stage2_tlb.hits              0                       # DTB hits
system.cpu.dstage2_mmu.stage2_tlb.inst_accesses            0                       # ITB inst accesses
system.cpu.dstage2_mmu.stage2_tlb.inst_hits            0                       # ITB inst hits
system.cpu.dstage2_mmu.stage2_tlb.inst_misses            0                       # ITB inst misses
system.cpu.dstage2_mmu.stage2_tlb.misses            0                       # DTB misses
system.cpu.dstage2_mmu.stage2_tlb.perms_faults            0                       # Number of TLB faults due to permissions restrictions
system.cpu.dstage2_mmu.stage2_tlb.prefetch_faults            0                       # Number of TLB faults due to prefetch
system.cpu.dstage2_mmu.stage2_tlb.read_accesses            0                       # DTB read accesses
system.cpu.dstage2_mmu.stage2_tlb.read_hits            0                       # DTB read hits
system.cpu.dstage2_mmu.stage2_tlb.read_misses            0                       # DTB read misses
system.cpu.dstage2_mmu.stage2_tlb.walker.pwrStateResidencyTicks::UNDEFINED  59431269000                       # Cumulative time (in ticks) in various power states
system.cpu.dstage2_mmu.stage2_tlb.walker.walkRequestOrigin_Requested::Data            0                       # Table walker requests started/completed, data/inst
system.cpu.dstage2_mmu.stage2_tlb.walker.walkRequestOrigin_Requested::Inst            0                       # Table walker requests started/completed, data/inst
system.cpu.dstage2_mmu.stage2_tlb.walker.walkRequestOrigin_Requested::total            0                       # Table walker requests started/completed, data/inst
system.cpu.dstage2_mmu.stage2_tlb.walker.walkRequestOrigin_Completed::Data            0                       # Table walker requests started/completed, data/inst
system.cpu.dstage2_mmu.stage2_tlb.walker.walkRequestOrigin_Completed::Inst            0                       # Table walker requests started/completed, data/inst
system.cpu.dstage2_mmu.stage2_tlb.walker.walkRequestOrigin_Completed::total            0                       # Table walker requests started/completed, data/inst
system.cpu.dstage2_mmu.stage2_tlb.walker.walkRequestOrigin::total            0                       # Table walker requests started/completed, data/inst
system.cpu.dstage2_mmu.stage2_tlb.walker.walks            0                       # Table walker walks requested
system.cpu.dstage2_mmu.stage2_tlb.write_accesses            0                       # DTB write accesses
system.cpu.dstage2_mmu.stage2_tlb.write_hits            0                       # DTB write hits
system.cpu.dstage2_mmu.stage2_tlb.write_misses            0                       # DTB write misses
system.cpu.dtb.accesses                             0                       # DTB accesses
system.cpu.dtb.align_faults                         0                       # Number of TLB faults due to alignment restrictions
system.cpu.dtb.domain_faults                        0                       # Number of TLB faults due to domain restrictions
system.cpu.dtb.flush_entries                        0                       # Number of entries that have been flushed from TLB
system.cpu.dtb.flush_tlb                            0                       # Number of times complete TLB was flushed
system.cpu.dtb.flush_tlb_asid                       0                       # Number of times TLB was flushed by ASID
system.cpu.dtb.flush_tlb_mva                        0                       # Number of times TLB was flushed by MVA
system.cpu.dtb.flush_tlb_mva_asid                   0                       # Number of times TLB was flushed by MVA & ASID
system.cpu.dtb.hits                                 0                       # DTB hits
system.cpu.dtb.inst_accesses                        0                       # ITB inst accesses
system.cpu.dtb.inst_hits                            0                       # ITB inst hits
system.cpu.dtb.inst_misses                          0                       # ITB inst misses
system.cpu.dtb.misses                               0                       # DTB misses
system.cpu.dtb.perms_faults                         0                       # Number of TLB faults due to permissions restrictions
system.cpu.dtb.prefetch_faults                      0                       # Number of TLB faults due to prefetch
system.cpu.dtb.read_accesses                        0                       # DTB read accesses
system.cpu.dtb.read_hits                            0                       # DTB read hits
system.cpu.dtb.read_misses                          0                       # DTB read misses
system.cpu.dtb.walker.pwrStateResidencyTicks::UNDEFINED  59431269000                       # Cumulative time (in ticks) in various power states
system.cpu.dtb.walker.walkRequestOrigin_Requested::Data            0                       # Table walker requests started/completed, data/inst
system.cpu.dtb.walker.walkRequestOrigin_Requested::Inst            0                       # Table walker requests started/completed, data/inst
system.cpu.dtb.walker.walkRequestOrigin_Requested::total            0                       # Table walker requests started/completed, data/inst
system.cpu.dtb.walker.walkRequestOrigin_Completed::Data            0                       # Table walker requests started/completed, data/inst
system.cpu.dtb.walker.walkRequestOrigin_Completed::Inst            0                       # Table walker requests started/completed, data/inst
system.cpu.dtb.walker.walkRequestOrigin_Completed::total            0                       # Table walker requests started/completed, data/inst
system.cpu.dtb.walker.walkRequestOrigin::total            0                       # Table walker requests started/completed, data/inst
system.cpu.dtb.walker.walks                         0                       # Table walker walks requested
system.cpu.dtb.write_accesses                       0                       # DTB write accesses
system.cpu.dtb.write_hits                           0                       # DTB write hits
system.cpu.dtb.write_misses                         0                       # DTB write misses
system.cpu.fetch2.amo_instructions                  0                       # Number of memory atomic instructions successfully decoded
system.cpu.fetch2.fp_instructions                   0                       # Number of floating point instructions successfully decoded
system.cpu.fetch2.int_instructions           48788716                       # Number of integer instructions successfully decoded
system.cpu.fetch2.load_instructions          40351600                       # Number of memory load instructions successfully decoded
system.cpu.fetch2.store_instructions          6250600                       # Number of memory store instructions successfully decoded
system.cpu.fetch2.vec_instructions                  0                       # Number of SIMD instructions successfully decoded
system.cpu.icache.ReadReq_accesses::.cpu.inst     16988467                       # number of ReadReq accesses(hits+misses)
system.cpu.icache.ReadReq_accesses::total     16988467                       # number of ReadReq accesses(hits+misses)
system.cpu.icache.ReadReq_avg_miss_latency::.cpu.inst 51989.664676                       # average ReadReq miss latency
system.cpu.icache.ReadReq_avg_miss_latency::total 51989.664676                       # average ReadReq miss latency
system.cpu.icache.ReadReq_avg_mshr_miss_latency::.cpu.inst 50989.664676                       # average ReadReq mshr miss latency
system.cpu.icache.ReadReq_avg_mshr_miss_latency::total 50989.664676                       # average ReadReq mshr miss latency
system.cpu.icache.ReadReq_hits::.cpu.inst     16986290                       # number of ReadReq hits
system.cpu.icache.ReadReq_hits::total        16986290                       # number of ReadReq hits
system.cpu.icache.ReadReq_miss_latency::.cpu.inst    113181500                       # number of ReadReq miss cycles
system.cpu.icache.ReadReq_miss_latency::total    113181500                       # number of ReadReq miss cycles
system.cpu.icache.ReadReq_miss_rate::.cpu.inst     0.000128                       # miss rate for ReadReq accesses
system.cpu.icache.ReadReq_miss_rate::total     0.000128                       # miss rate for ReadReq accesses
system.cpu.icache.ReadReq_misses::.cpu.inst         2177                       # number of ReadReq misses
system.cpu.icache.ReadReq_misses::total          2177                       # number of ReadReq misses
system.cpu.icache.ReadReq_mshr_miss_latency::.cpu.inst    111004500                       # number of ReadReq MSHR miss cycles
system.cpu.icache.ReadReq_mshr_miss_latency::total    111004500                       # number of ReadReq MSHR miss cycles
system.cpu.icache.ReadReq_mshr_miss_rate::.cpu.inst     0.000128                       # mshr miss rate for ReadReq accesses
system.cpu.icache.ReadReq_mshr_miss_rate::total     0.000128                       # mshr miss rate for ReadReq accesses
system.cpu.icache.ReadReq_mshr_misses::.cpu.inst         2177                       # number of ReadReq MSHR misses
system.cpu.icache.ReadReq_mshr_misses::total         2177                       # number of ReadReq MSHR misses
system.cpu.icache.avg_blocked_cycles::no_mshrs          nan                       # average number of cycles each access was blocked
system.cpu.icache.avg_blocked_cycles::no_targets          nan                       # average number of cycles each access was blocked
system.cpu.icache.blocked::no_mshrs                 0                       # number of cycles access was blocked
system.cpu.icache.blocked::no_targets               0                       # number of cycles access was blocked
system.cpu.icache.blocked_cycles::no_mshrs            0                       # number of cycles access was blocked
system.cpu.icache.blocked_cycles::no_targets            0                       # number of cycles access was blocked
system.cpu.icache.demand_accesses::.cpu.inst     16988467                       # number of demand (read+write) accesses
system.cpu.icache.demand_accesses::total     16988467                       # number of demand (read+write) accesses
system.cpu.icache.demand_avg_miss_latency::.cpu.inst 51989.664676                       # average overall miss latency
system.cpu.icache.demand_avg_miss_latency::total 51989.664676                       # average overall miss latency
system.cpu.icache.demand_avg_mshr_miss_latency::.cpu.inst 50989.664676                       # average overall mshr miss latency
system.cpu.icache.demand_avg_mshr_miss_latency::total 50989.664676                       # average overall mshr miss latency
system.cpu.icache.demand_hits::.cpu.inst     16986290                       # number of demand (read+write) hits
system.cpu.icache.demand_hits::total         16986290                       # number of demand (read+write) hits
system.cpu.icache.demand_miss_latency::.cpu.inst    113181500                       # number of demand (read+write) miss cycles
system.cpu.icache.demand_miss_latency::total    113181500                       # number of demand (read+write) miss cycles
system.cpu.icache.demand_miss_rate::.cpu.inst     0.000128                       # miss rate for demand accesses
system.cpu.icache.demand_miss_rate::total     0.000128                       # miss rate for demand accesses
system.cpu.icache.demand_misses::.cpu.inst         2177                       # number of demand (read+write) misses
system.cpu.icache.demand_misses::total           2177                       # number of demand (read+write) misses
system.cpu.icache.demand_mshr_miss_latency::.cpu.inst    111004500                       # number of demand (read+write) MSHR miss cycles
system.cpu.icache.demand_mshr_miss_latency::total    111004500                       # number of demand (read+write) MSHR miss cycles
system.cpu.icache.demand_mshr_miss_rate::.cpu.inst     0.000128                       # mshr miss rate for demand accesses
system.cpu.icache.demand_mshr_miss_rate::total     0.000128                       # mshr miss rate for demand accesses
system.cpu.icache.demand_mshr_misses::.cpu.inst         2177                       # number of demand (read+write) MSHR misses
system.cpu.icache.demand_mshr_misses::total         2177                       # number of demand (read+write) MSHR misses
system.cpu.icache.overall_accesses::.cpu.inst     16988467                       # number of overall (read+write) accesses
system.cpu.icache.overall_accesses::total     16988467                       # number of overall (read+write) accesses
system.cpu.icache.overall_avg_miss_latency::.cpu.inst 51989.664676                       # average overall miss latency
system.cpu.icache.overall_avg_miss_latency::total 51989.664676                       # average overall miss latency
system.cpu.icache.overall_avg_mshr_miss_latency::.cpu.inst 50989.664676                       # average overall mshr miss latency
system.cpu.icache.overall_avg_mshr_miss_latency::total 50989.664676                       # average overall mshr miss latency
system.cpu.icache.overall_hits::.cpu.inst     16986290                       # number of overall hits
system.cpu.icache.overall_hits::total        16986290                       # number of overall hits
system.cpu.icache.overall_miss_latency::.cpu.inst    113181500                       # number of overall miss cycles
system.cpu.icache.overall_miss_latency::total    113181500                       # number of overall miss cycles
system.cpu.icache.overall_miss_rate::.cpu.inst     0.000128                       # miss rate for overall accesses
system.cpu.icache.overall_miss_rate::total     0.000128                       # miss rate for overall accesses
system.cpu.icache.overall_misses::.cpu.inst         2177                       # number of overall misses
system.cpu.icache.overall_misses::total          2177                       # number of overall misses
system.cpu.icache.overall_mshr_miss_latency::.cpu.inst    111004500                       # number of overall MSHR miss cycles
system.cpu.icache.overall_mshr_miss_latency::total    111004500                       # number of overall MSHR miss cycles
system.cpu.icache.overall_mshr_miss_rate::.cpu.inst     0.000128                       # mshr miss rate for overall accesses
system.cpu.icache.overall_mshr_miss_rate::total     0.000128                       # mshr miss rate for overall accesses
system.cpu.icache.overall_mshr_misses::.cpu.inst         2177                       # number of overall MSHR misses
system.cpu.icache.overall_mshr_misses::total         2177                       # number of overall MSHR misses
system.cpu.icache.pwrStateResidencyTicks::UNDEFINED  59431269000                       # Cumulative time (in ticks) in various power states
system.cpu.icache.replacements                   1682                       # number of replacements
system.cpu.icache.tags.age_task_id_blocks_1024::2            1                       # Occupied blocks per task id
system.cpu.icache.tags.age_task_id_blocks_1024::3           13                       # Occupied blocks per task id
system.cpu.icache.tags.age_task_id_blocks_1024::4          481                       # Occupied blocks per task id
system.cpu.icache.tags.avg_refs           7803.613689                       # Average number of references to valid blocks.
system.cpu.icache.tags.data_accesses         33979111                       # Number of data accesses
system.cpu.icache.tags.occ_blocks::.cpu.inst   494.643110                       # Average occupied blocks per requestor
system.cpu.icache.tags.occ_percent::.cpu.inst     0.966100                       # Average percentage of cache occupancy
system.cpu.icache.tags.occ_percent::total     0.966100                       # Average percentage of cache occupancy
system.cpu.icache.tags.occ_task_id_blocks::1024          495                       # Occupied blocks per task id
system.cpu.icache.tags.occ_task_id_percent::1024     0.966797                       # Percentage of cache occupancy per task id
system.cpu.icache.tags.pwrStateResidencyTicks::UNDEFINED  59431269000                       # Cumulative time (in ticks) in various power states
system.cpu.icache.tags.sampled_refs              2177                       # Sample count of references to valid blocks.
system.cpu.icache.tags.tag_accesses          33979111                       # Number of tag accesses
system.cpu.icache.tags.tagsinuse           494.643110                       # Cycle average of tags in use
system.cpu.icache.tags.total_refs            16988467                       # Total number of references to valid blocks.
system.cpu.icache.tags.warmup_cycle             87500                       # Cycle when the warmup percentage was hit.
system.cpu.icache.writebacks::.writebacks         1682                       # number of writebacks
system.cpu.icache.writebacks::total              1682                       # number of writebacks
system.cpu.idleCycles                         2837531                       # Total number of cycles that the object has spent stopped
system.cpu.ipc                               0.841308                       # IPC: instructions per cycle
system.cpu.istage2_mmu.stage2_tlb.accesses            0                       # DTB accesses
system.cpu.istage2_mmu.stage2_tlb.align_faults            0                       # Number of TLB faults due to alignment restrictions
system.cpu.istage2_mmu.stage2_tlb.domain_faults            0                       # Number of TLB faults due to domain restrictions
system.cpu.istage2_mmu.stage2_tlb.flush_entries            0                       # Number of entries that have been flushed from TLB
system.cpu.istage2_mmu.stage2_tlb.flush_tlb            0                       # Number of times complete TLB was flushed
system.cpu.istage2_mmu.stage2_tlb.flush_tlb_asid            0                       # Number of times TLB was flushed by ASID
system.cpu.istage2_mmu.stage2_tlb.flush_tlb_mva            0                       # Number of times TLB was flushed by MVA
system.cpu.istage2_mmu.stage2_tlb.flush_tlb_mva_asid            0                       # Number of times TLB was flushed by MVA & ASID
system.cpu.istage2_mmu.stage2_tlb.hits              0                       # DTB hits
system.cpu.istage2_mmu.stage2_tlb.inst_accesses            0                       # ITB inst accesses
system.cpu.istage2_mmu.stage2_tlb.inst_hits            0                       # ITB inst hits
system.cpu.istage2_mmu.stage2_tlb.inst_misses            0                       # ITB inst misses
system.cpu.istage2_mmu.stage2_tlb.misses            0                       # DTB misses
system.cpu.istage2_mmu.stage2_tlb.perms_faults            0                       # Number of TLB faults due to permissions restrictions
system.cpu.istage2_mmu.stage2_tlb.prefetch_faults            0                       # Number of TLB faults due to prefetch
system.cpu.istage2_mmu.stage2_tlb.read_accesses            0                       # DTB read accesses
system.cpu.istage2_mmu.stage2_tlb.read_hits            0                       # DTB read hits
system.cpu.istage2_mmu.stage2_tlb.read_misses            0                       # DTB read misses
system.cpu.istage2_mmu.stage2_tlb.walker.pwrStateResidencyTicks::UNDEFINED  59431269000                       # Cumulative time (in ticks) in various power states
system.cpu.istage2_mmu.stage2_tlb.walker.walkRequestOrigin_Requested::Data            0                       # Table walker requests started/completed, data/inst
system.cpu.istage2_mmu.stage2_tlb.walker.walkRequestOrigin_Requested::Inst            0                       # Table walker requests started/completed, data/inst
system.cpu.istage2_mmu.stage2_tlb.walker.walkRequestOrigin_Requested::total            0                       # Table walker requests started/completed, data/inst
system.cpu.istage2_mmu.stage2_tlb.walker.walkRequestOrigin_Completed::Data            0                       # Table walker requests started/completed, data/inst
system.cpu.istage2_mmu.stage2_tlb.walker.walkRequestOrigin_Completed::Inst            0                       # Table walker requests started/completed, data/inst
system.cpu.istage2_mmu.stage2_tlb.walker.walkRequestOrigin_Completed::total            0                       # Table walker requests started/completed, data/inst
system.cpu.istage2_mmu.stage2_tlb.walker.walkRequestOrigin::total            0                       # Table walker requests started/completed, data/inst
system.cpu.istage2_mmu.stage2_tlb.walker.walks            0                       # Table walker walks requested
system.cpu.istage2_mmu.stage2_tlb.write_accesses            0                       # DTB write accesses
system.cpu.istage2_mmu.stage2_tlb.write_hits            0                       # DTB write hits
system.cpu.istage2_mmu.stage2_tlb.write_misses            0                       # DTB write misses
system.cpu.itb.accesses                             0                       # DTB accesses
system.cpu.itb.align_faults                         0                       # Number of TLB faults due to alignment restrictions
system.cpu.itb.domain_faults                        0                       # Number of TLB faults due to domain restrictions
system.cpu.itb.flush_entries                        0                       # Number of entries that have been flushed from TLB
system.cpu.itb.flush_tlb                            0                       # Number of times complete TLB was flushed
system.cpu.itb.flush_tlb_asid                       0                       # Number of times TLB was flushed by ASID
system.cpu.itb.flush_tlb_mva                        0                       # Number of times TLB was flushed by MVA
system.cpu.itb.flush_tlb_mva_asid                   0                       # Number of times TLB was flushed by MVA & ASID
system.cpu.itb.hits                                 0                       # DTB hits
system.cpu.itb.inst_accesses                        0                       # ITB inst accesses
system.cpu.itb.inst_hits                            0                       # ITB inst hits
system.cpu.itb.inst_misses                          0                       # ITB inst misses
system.cpu.itb.misses                               0                       # DTB misses
system.cpu.itb.perms_faults                         0                       # Number of TLB faults due to permissions restrictions
system.cpu.itb.prefetch_faults                      0                       # Number of TLB faults due to prefetch
system.cpu.itb.read_accesses                        0                       # DTB read accesses
system.cpu.itb.read_hits                            0                       # DTB read hits
system.cpu.itb.read_misses                          0                       # DTB read misses
system.cpu.itb.walker.pwrStateResidencyTicks::UNDEFINED  59431269000                       # Cumulative time (in ticks) in various power states
system.cpu.itb.walker.walkRequestOrigin_Requested::Data            0                       # Table walker requests started/completed, data/inst
system.cpu.itb.walker.walkRequestOrigin_Requested::Inst            0                       # Table walker requests started/completed, data/inst
system.cpu.itb.walker.walkRequestOrigin_Requested::total            0                       # Table walker requests started/completed, data/inst
system.cpu.itb.walker.walkRequestOrigin_Completed::Data            0                       # Table walker requests started/completed, data/inst
system.cpu.itb.walker.walkRequestOrigin_Completed::Inst            0                       # Table walker requests started/completed, data/inst
system.cpu.itb.walker.walkRequestOrigin_Completed::total            0                       # Table walker requests started/completed, data/inst
system.cpu.itb.walker.walkRequestOrigin::total            0                       # Table walker requests started/completed, data/inst
system.cpu.itb.walker.walks                         0                       # Table walker walks requested
system.cpu.itb.write_accesses                       0                       # DTB write accesses
system.cpu.itb.write_hits                           0                       # DTB write hits
system.cpu.itb.write_misses                         0                       # DTB write misses
system.cpu.numCycles                        118862538                       # number of cpu cycles simulated
system.cpu.numFetchSuspends                         0                       # Number of times Execute suspended instruction fetching
system.cpu.numWorkItemsCompleted                    0                       # number of work items this cpu completed
system.cpu.numWorkItemsStarted                      0                       # number of work items this cpu started
system.cpu.op_class_0::No_OpClass                   0      0.00%      0.00% # Class of committed instruction
system.cpu.op_class_0::IntAlu                55111568     54.51%     54.51% # Class of committed instruction
system.cpu.op_class_0::IntMult                 167845      0.17%     54.67% # Class of committed instruction
system.cpu.op_class_0::IntDiv                       0      0.00%     54.67% # Class of committed instruction
system.cpu.op_class_0::FloatAdd                     0      0.00%     54.67% # Class of committed instruction
system.cpu.op_class_0::FloatCmp                     0      0.00%     54.67% # Class of committed instruction
system.cpu.op_class_0::FloatCvt                     0      0.00%     54.67% # Class of committed instruction
system.cpu.op_class_0::FloatMult                    0      0.00%     54.67% # Class of committed instruction
system.cpu.op_class_0::FloatMultAcc                 0      0.00%     54.67% # Class of committed instruction
system.cpu.op_class_0::FloatDiv                     0      0.00%     54.67% # Class of committed instruction
system.cpu.op_class_0::FloatMisc                    0      0.00%     54.67% # Class of committed instruction
system.cpu.op_class_0::FloatSqrt                    0      0.00%     54.67% # Class of committed instruction
system.cpu.op_class_0::SimdAdd                    380      0.00%     54.67% # Class of committed instruction
system.cpu.op_class_0::SimdAddAcc                   0      0.00%     54.67% # Class of committed instruction
system.cpu.op_class_0::SimdAlu                    470      0.00%     54.68% # Class of committed instruction
system.cpu.op_class_0::SimdCmp                    382      0.00%     54.68% # Class of committed instruction
system.cpu.op_class_0::SimdCvt                      0      0.00%     54.68% # Class of committed instruction
system.cpu.op_class_0::SimdMisc                    53      0.00%     54.68% # Class of committed instruction
system.cpu.op_class_0::SimdMult                     0      0.00%     54.68% # Class of committed instruction
system.cpu.op_class_0::SimdMultAcc                  0      0.00%     54.68% # Class of committed instruction
system.cpu.op_class_0::SimdShift                    0      0.00%     54.68% # Class of committed instruction
system.cpu.op_class_0::SimdShiftAcc                 0      0.00%     54.68% # Class of committed instruction
system.cpu.op_class_0::SimdDiv                      0      0.00%     54.68% # Class of committed instruction
system.cpu.op_class_0::SimdSqrt                     0      0.00%     54.68% # Class of committed instruction
system.cpu.op_class_0::SimdFloatAdd            277400      0.27%     54.95% # Class of committed instruction
system.cpu.op_class_0::SimdFloatAlu                 0      0.00%     54.95% # Class of committed instruction
system.cpu.op_class_0::SimdFloatCmp            265508      0.26%     55.21% # Class of committed instruction
system.cpu.op_class_0::SimdFloatCvt            163440      0.16%     55.37% # Class of committed instruction
system.cpu.op_class_0::SimdFloatDiv             54308      0.05%     55.43% # Class of committed instruction
system.cpu.op_class_0::SimdFloatMisc           500265      0.49%     55.92% # Class of committed instruction
system.cpu.op_class_0::SimdFloatMult            35278      0.03%     55.96% # Class of committed instruction
system.cpu.op_class_0::SimdFloatMultAcc          9804      0.01%     55.97% # Class of committed instruction
system.cpu.op_class_0::SimdFloatSqrt                0      0.00%     55.97% # Class of committed instruction
system.cpu.op_class_0::SimdReduceAdd                0      0.00%     55.97% # Class of committed instruction
system.cpu.op_class_0::SimdReduceAlu                0      0.00%     55.97% # Class of committed instruction
system.cpu.op_class_0::SimdReduceCmp                0      0.00%     55.97% # Class of committed instruction
system.cpu.op_class_0::SimdFloatReduceAdd            0      0.00%     55.97% # Class of committed instruction
system.cpu.op_class_0::SimdFloatReduceCmp            0      0.00%     55.97% # Class of committed instruction
system.cpu.op_class_0::SimdAes                      0      0.00%     55.97% # Class of committed instruction
system.cpu.op_class_0::SimdAesMix                   0      0.00%     55.97% # Class of committed instruction
system.cpu.op_class_0::SimdSha1Hash                 0      0.00%     55.97% # Class of committed instruction
system.cpu.op_class_0::SimdSha1Hash2                0      0.00%     55.97% # Class of committed instruction
system.cpu.op_class_0::SimdSha256Hash               0      0.00%     55.97% # Class of committed instruction
system.cpu.op_class_0::SimdSha256Hash2              0      0.00%     55.97% # Class of committed instruction
system.cpu.op_class_0::SimdShaSigma2                0      0.00%     55.97% # Class of committed instruction
system.cpu.op_class_0::SimdShaSigma3                0      0.00%     55.97% # Class of committed instruction
system.cpu.op_class_0::SimdPredAlu                  0      0.00%     55.97% # Class of committed instruction
system.cpu.op_class_0::MemRead               38143374     37.73%     93.69% # Class of committed instruction
system.cpu.op_class_0::MemWrite               6376907      6.31%    100.00% # Class of committed instruction
system.cpu.op_class_0::FloatMemRead                 0      0.00%    100.00% # Class of committed instruction
system.cpu.op_class_0::FloatMemWrite                0      0.00%    100.00% # Class of committed instruction
system.cpu.op_class_0::IprAccess                    0      0.00%    100.00% # Class of committed instruction
system.cpu.op_class_0::InstPrefetch                 0      0.00%    100.00% # Class of committed instruction
system.cpu.op_class_0::total                101106982                       # Class of committed instruction
system.cpu.pwrStateResidencyTicks::ON     59431269000                       # Cumulative time (in ticks) in various power states
system.cpu.tickCycles                       116025007                       # Number of cycles that the object actually ticked
system.cpu.workload.numSyscalls                    32                       # Number of system calls
system.cpu_clk_domain.clock                       500                       # Clock period in ticks
system.cpu_voltage_domain.voltage                   1                       # Voltage in Volts
system.l2.ReadCleanReq_accesses::.cpu.inst         2177                       # number of ReadCleanReq accesses(hits+misses)
system.l2.ReadCleanReq_accesses::total           2177                       # number of ReadCleanReq accesses(hits+misses)
system.l2.ReadCleanReq_avg_miss_latency::.cpu.inst 76535.046729                       # average ReadCleanReq miss latency
system.l2.ReadCleanReq_avg_miss_latency::total 76535.046729                       # average ReadCleanReq miss latency
system.l2.ReadCleanReq_avg_mshr_miss_latency::.cpu.inst 66542.901716                       # average ReadCleanReq mshr miss latency
system.l2.ReadCleanReq_avg_mshr_miss_latency::total 66542.901716                       # average ReadCleanReq mshr miss latency
system.l2.ReadCleanReq_hits::.cpu.inst            893                       # number of ReadCleanReq hits
system.l2.ReadCleanReq_hits::total                893                       # number of ReadCleanReq hits
system.l2.ReadCleanReq_miss_latency::.cpu.inst     98271000                       # number of ReadCleanReq miss cycles
system.l2.ReadCleanReq_miss_latency::total     98271000                       # number of ReadCleanReq miss cycles
system.l2.ReadCleanReq_miss_rate::.cpu.inst     0.589802                       # miss rate for ReadCleanReq accesses
system.l2.ReadCleanReq_miss_rate::total      0.589802                       # miss rate for ReadCleanReq accesses
system.l2.ReadCleanReq_misses::.cpu.inst         1284                       # number of ReadCleanReq misses
system.l2.ReadCleanReq_misses::total             1284                       # number of ReadCleanReq misses
system.l2.ReadCleanReq_mshr_hits::.cpu.inst            2                       # number of ReadCleanReq MSHR hits
system.l2.ReadCleanReq_mshr_hits::total             2                       # number of ReadCleanReq MSHR hits
system.l2.ReadCleanReq_mshr_miss_latency::.cpu.inst     85308000                       # number of ReadCleanReq MSHR miss cycles
system.l2.ReadCleanReq_mshr_miss_latency::total     85308000                       # number of ReadCleanReq MSHR miss cycles
system.l2.ReadCleanReq_mshr_miss_rate::.cpu.inst     0.588884                       # mshr miss rate for ReadCleanReq accesses
system.l2.ReadCleanReq_mshr_miss_rate::total     0.588884                       # mshr miss rate for ReadCleanReq accesses
system.l2.ReadCleanReq_mshr_misses::.cpu.inst         1282                       # number of ReadCleanReq MSHR misses
system.l2.ReadCleanReq_mshr_misses::total         1282                       # number of ReadCleanReq MSHR misses
system.l2.ReadExReq_accesses::.cpu.data         53001                       # number of ReadExReq accesses(hits+misses)
system.l2.ReadExReq_accesses::total             53001                       # number of ReadExReq accesses(hits+misses)
system.l2.ReadExReq_avg_miss_latency::.cpu.data 77613.803430                       # average ReadExReq miss latency
system.l2.ReadExReq_avg_miss_latency::total 77613.803430                       # average ReadExReq miss latency
system.l2.ReadExReq_avg_mshr_miss_latency::.cpu.data 67613.803430                       # average ReadExReq mshr miss latency
system.l2.ReadExReq_avg_mshr_miss_latency::total 67613.803430                       # average ReadExReq mshr miss latency
system.l2.ReadExReq_hits::.cpu.data             49328                       # number of ReadExReq hits
system.l2.ReadExReq_hits::total                 49328                       # number of ReadExReq hits
system.l2.ReadExReq_miss_latency::.cpu.data    285075500                       # number of ReadExReq miss cycles
system.l2.ReadExReq_miss_latency::total     285075500                       # number of ReadExReq miss cycles
system.l2.ReadExReq_miss_rate::.cpu.data     0.069301                       # miss rate for ReadExReq accesses
system.l2.ReadExReq_miss_rate::total         0.069301                       # miss rate for ReadExReq accesses
system.l2.ReadExReq_misses::.cpu.data            3673                       # number of ReadExReq misses
system.l2.ReadExReq_misses::total                3673                       # number of ReadExReq misses
system.l2.ReadExReq_mshr_miss_latency::.cpu.data    248345500                       # number of ReadExReq MSHR miss cycles
system.l2.ReadExReq_mshr_miss_latency::total    248345500                       # number of ReadExReq MSHR miss cycles
system.l2.ReadExReq_mshr_miss_rate::.cpu.data     0.069301                       # mshr miss rate for ReadExReq accesses
system.l2.ReadExReq_mshr_miss_rate::total     0.069301                       # mshr miss rate for ReadExReq accesses
system.l2.ReadExReq_mshr_misses::.cpu.data         3673                       # number of ReadExReq MSHR misses
system.l2.ReadExReq_mshr_misses::total           3673                       # number of ReadExReq MSHR misses
system.l2.ReadSharedReq_accesses::.cpu.data        13234                       # number of ReadSharedReq accesses(hits+misses)
system.l2.ReadSharedReq_accesses::total         13234                       # number of ReadSharedReq accesses(hits+misses)
system.l2.ReadSharedReq_avg_miss_latency::.cpu.data 78911.279230                       # average ReadSharedReq miss latency
system.l2.ReadSharedReq_avg_miss_latency::total 78911.279230                       # average ReadSharedReq miss latency
system.l2.ReadSharedReq_avg_mshr_miss_latency::.cpu.data 69033.933518                       # average ReadSharedReq mshr miss latency
system.l2.ReadSharedReq_avg_mshr_miss_latency::total 69033.933518                       # average ReadSharedReq mshr miss latency
system.l2.ReadSharedReq_hits::.cpu.data         12507                       # number of ReadSharedReq hits
system.l2.ReadSharedReq_hits::total             12507                       # number of ReadSharedReq hits
system.l2.ReadSharedReq_miss_latency::.cpu.data     57368500                       # number of ReadSharedReq miss cycles
system.l2.ReadSharedReq_miss_latency::total     57368500                       # number of ReadSharedReq miss cycles
system.l2.ReadSharedReq_miss_rate::.cpu.data     0.054934                       # miss rate for ReadSharedReq accesses
system.l2.ReadSharedReq_miss_rate::total     0.054934                       # miss rate for ReadSharedReq accesses
system.l2.ReadSharedReq_misses::.cpu.data          727                       # number of ReadSharedReq misses
system.l2.ReadSharedReq_misses::total             727                       # number of ReadSharedReq misses
system.l2.ReadSharedReq_mshr_hits::.cpu.data            5                       # number of ReadSharedReq MSHR hits
system.l2.ReadSharedReq_mshr_hits::total            5                       # number of ReadSharedReq MSHR hits
system.l2.ReadSharedReq_mshr_miss_latency::.cpu.data     49842500                       # number of ReadSharedReq MSHR miss cycles
system.l2.ReadSharedReq_mshr_miss_latency::total     49842500                       # number of ReadSharedReq MSHR miss cycles
system.l2.ReadSharedReq_mshr_miss_rate::.cpu.data     0.054556                       # mshr miss rate for ReadSharedReq accesses
system.l2.ReadSharedReq_mshr_miss_rate::total     0.054556                       # mshr miss rate for ReadSharedReq accesses
system.l2.ReadSharedReq_mshr_misses::.cpu.data          722                       # number of ReadSharedReq MSHR misses
system.l2.ReadSharedReq_mshr_misses::total          722                       # number of ReadSharedReq MSHR misses
system.l2.WritebackClean_accesses::.writebacks         1600                       # number of WritebackClean accesses(hits+misses)
system.l2.WritebackClean_accesses::total         1600                       # number of WritebackClean accesses(hits+misses)
system.l2.WritebackClean_hits::.writebacks         1600                       # number of WritebackClean hits
system.l2.WritebackClean_hits::total             1600                       # number of WritebackClean hits
system.l2.WritebackDirty_accesses::.writebacks        63172                       # number of WritebackDirty accesses(hits+misses)
system.l2.WritebackDirty_accesses::total        63172                       # number of WritebackDirty accesses(hits+misses)
system.l2.WritebackDirty_hits::.writebacks        63172                       # number of WritebackDirty hits
system.l2.WritebackDirty_hits::total            63172                       # number of WritebackDirty hits
system.l2.avg_blocked_cycles::no_mshrs            nan                       # average number of cycles each access was blocked
system.l2.avg_blocked_cycles::no_targets          nan                       # average number of cycles each access was blocked
system.l2.blocked::no_mshrs                         0                       # number of cycles access was blocked
system.l2.blocked::no_targets                       0                       # number of cycles access was blocked
system.l2.blocked_cycles::no_mshrs                  0                       # number of cycles access was blocked
system.l2.blocked_cycles::no_targets                0                       # number of cycles access was blocked
system.l2.demand_accesses::.cpu.inst             2177                       # number of demand (read+write) accesses
system.l2.demand_accesses::.cpu.data            66235                       # number of demand (read+write) accesses
system.l2.demand_accesses::total                68412                       # number of demand (read+write) accesses
system.l2.demand_avg_miss_latency::.cpu.inst 76535.046729                       # average overall miss latency
system.l2.demand_avg_miss_latency::.cpu.data 77828.181818                       # average overall miss latency
system.l2.demand_avg_miss_latency::total 77536.066151                       # average overall miss latency
system.l2.demand_avg_mshr_miss_latency::.cpu.inst 66542.901716                       # average overall mshr miss latency
system.l2.demand_avg_mshr_miss_latency::.cpu.data 67847.098976                       # average overall mshr miss latency
system.l2.demand_avg_mshr_miss_latency::total 67552.580588                       # average overall mshr miss latency
system.l2.demand_hits::.cpu.inst                  893                       # number of demand (read+write) hits
system.l2.demand_hits::.cpu.data                61835                       # number of demand (read+write) hits
system.l2.demand_hits::total                    62728                       # number of demand (read+write) hits
system.l2.demand_miss_latency::.cpu.inst     98271000                       # number of demand (read+write) miss cycles
system.l2.demand_miss_latency::.cpu.data    342444000                       # number of demand (read+write) miss cycles
system.l2.demand_miss_latency::total        440715000                       # number of demand (read+write) miss cycles
system.l2.demand_miss_rate::.cpu.inst        0.589802                       # miss rate for demand accesses
system.l2.demand_miss_rate::.cpu.data        0.066430                       # miss rate for demand accesses
system.l2.demand_miss_rate::total            0.083085                       # miss rate for demand accesses
system.l2.demand_misses::.cpu.inst               1284                       # number of demand (read+write) misses
system.l2.demand_misses::.cpu.data               4400                       # number of demand (read+write) misses
system.l2.demand_misses::total                   5684                       # number of demand (read+write) misses
system.l2.demand_mshr_hits::.cpu.inst               2                       # number of demand (read+write) MSHR hits
system.l2.demand_mshr_hits::.cpu.data               5                       # number of demand (read+write) MSHR hits
system.l2.demand_mshr_hits::total                   7                       # number of demand (read+write) MSHR hits
system.l2.demand_mshr_miss_latency::.cpu.inst     85308000                       # number of demand (read+write) MSHR miss cycles
system.l2.demand_mshr_miss_latency::.cpu.data    298188000                       # number of demand (read+write) MSHR miss cycles
system.l2.demand_mshr_miss_latency::total    383496000                       # number of demand (read+write) MSHR miss cycles
system.l2.demand_mshr_miss_rate::.cpu.inst     0.588884                       # mshr miss rate for demand accesses
system.l2.demand_mshr_miss_rate::.cpu.data     0.066355                       # mshr miss rate for demand accesses
system.l2.demand_mshr_miss_rate::total       0.082983                       # mshr miss rate for demand accesses
system.l2.demand_mshr_misses::.cpu.inst          1282                       # number of demand (read+write) MSHR misses
system.l2.demand_mshr_misses::.cpu.data          4395                       # number of demand (read+write) MSHR misses
system.l2.demand_mshr_misses::total              5677                       # number of demand (read+write) MSHR misses
system.l2.overall_accesses::.cpu.inst            2177                       # number of overall (read+write) accesses
system.l2.overall_accesses::.cpu.data           66235                       # number of overall (read+write) accesses
system.l2.overall_accesses::total               68412                       # number of overall (read+write) accesses
system.l2.overall_avg_miss_latency::.cpu.inst 76535.046729                       # average overall miss latency
system.l2.overall_avg_miss_latency::.cpu.data 77828.181818                       # average overall miss latency
system.l2.overall_avg_miss_latency::total 77536.066151                       # average overall miss latency
system.l2.overall_avg_mshr_miss_latency::.cpu.inst 66542.901716                       # average overall mshr miss latency
system.l2.overall_avg_mshr_miss_latency::.cpu.data 67847.098976                       # average overall mshr miss latency
system.l2.overall_avg_mshr_miss_latency::total 67552.580588                       # average overall mshr miss latency
system.l2.overall_hits::.cpu.inst                 893                       # number of overall hits
system.l2.overall_hits::.cpu.data               61835                       # number of overall hits
system.l2.overall_hits::total                   62728                       # number of overall hits
system.l2.overall_miss_latency::.cpu.inst     98271000                       # number of overall miss cycles
system.l2.overall_miss_latency::.cpu.data    342444000                       # number of overall miss cycles
system.l2.overall_miss_latency::total       440715000                       # number of overall miss cycles
system.l2.overall_miss_rate::.cpu.inst       0.589802                       # miss rate for overall accesses
system.l2.overall_miss_rate::.cpu.data       0.066430                       # miss rate for overall accesses
system.l2.overall_miss_rate::total           0.083085                       # miss rate for overall accesses
system.l2.overall_misses::.cpu.inst              1284                       # number of overall misses
system.l2.overall_misses::.cpu.data              4400                       # number of overall misses
system.l2.overall_misses::total                  5684                       # number of overall misses
system.l2.overall_mshr_hits::.cpu.inst              2                       # number of overall MSHR hits
system.l2.overall_mshr_hits::.cpu.data              5                       # number of overall MSHR hits
system.l2.overall_mshr_hits::total                  7                       # number of overall MSHR hits
system.l2.overall_mshr_miss_latency::.cpu.inst     85308000                       # number of overall MSHR miss cycles
system.l2.overall_mshr_miss_latency::.cpu.data    298188000                       # number of overall MSHR miss cycles
system.l2.overall_mshr_miss_latency::total    383496000                       # number of overall MSHR miss cycles
system.l2.overall_mshr_miss_rate::.cpu.inst     0.588884                       # mshr miss rate for overall accesses
system.l2.overall_mshr_miss_rate::.cpu.data     0.066355                       # mshr miss rate for overall accesses
system.l2.overall_mshr_miss_rate::total      0.082983                       # mshr miss rate for overall accesses
system.l2.overall_mshr_misses::.cpu.inst         1282                       # number of overall MSHR misses
system.l2.overall_mshr_misses::.cpu.data         4395                       # number of overall MSHR misses
system.l2.overall_mshr_misses::total             5677                       # number of overall MSHR misses
system.l2.pwrStateResidencyTicks::UNDEFINED  59431269000                       # Cumulative time (in ticks) in various power states
system.l2.replacements                              0                       # number of replacements
system.l2.tags.age_task_id_blocks_1024::4         5677                       # Occupied blocks per task id
system.l2.tags.avg_refs                     23.690506                       # Average number of references to valid blocks.
system.l2.tags.data_accesses                  1081661                       # Number of data accesses
system.l2.tags.occ_blocks::.cpu.inst      1275.057419                       # Average occupied blocks per requestor
system.l2.tags.occ_blocks::.cpu.data      4190.006042                       # Average occupied blocks per requestor
system.l2.tags.occ_percent::.cpu.inst        0.038912                       # Average percentage of cache occupancy
system.l2.tags.occ_percent::.cpu.data        0.127869                       # Average percentage of cache occupancy
system.l2.tags.occ_percent::total            0.166781                       # Average percentage of cache occupancy
system.l2.tags.occ_task_id_blocks::1024          5677                       # Occupied blocks per task id
system.l2.tags.occ_task_id_percent::1024     0.173248                       # Percentage of cache occupancy per task id
system.l2.tags.pwrStateResidencyTicks::UNDEFINED  59431269000                       # Cumulative time (in ticks) in various power states
system.l2.tags.sampled_refs                      5677                       # Sample count of references to valid blocks.
system.l2.tags.tag_accesses                   1081661                       # Number of tag accesses
system.l2.tags.tagsinuse                  5465.063462                       # Cycle average of tags in use
system.l2.tags.total_refs                      134491                       # Total number of references to valid blocks.
system.l2.tags.warmup_cycle                     77000                       # Cycle when the warmup percentage was hit.
system.mem_ctrls.avgBusLat                    5000.00                       # Average bus latency per DRAM burst
system.mem_ctrls.avgGap                    2850508.63                       # Average gap between requests
system.mem_ctrls.avgMemAccLat                26504.93                       # Average memory access latency per DRAM burst
system.mem_ctrls.avgPriority_.cpu.inst::samples      1282.00                       # Average QoS priority value for accepted requests
system.mem_ctrls.avgPriority_.cpu.data::samples      4395.00                       # Average QoS priority value for accepted requests
system.mem_ctrls.avgQLat                      7754.93                       # Average queueing delay per DRAM burst
system.mem_ctrls.avgRdBW                         6.11                       # Average DRAM read bandwidth in MiByte/s
system.mem_ctrls.avgRdBWSys                      6.11                       # Average system read bandwidth in MiByte/s
system.mem_ctrls.avgRdQLen                       1.01                       # Average read queue length when enqueuing
system.mem_ctrls.avgWrBW                         0.00                       # Average achieved write bandwidth in MiByte/s
system.mem_ctrls.avgWrBWSys                      0.00                       # Average system write bandwidth in MiByte/s
system.mem_ctrls.avgWrQLen                       0.00                       # Average write queue length when enqueuing
system.mem_ctrls.busUtil                         0.05                       # Data bus utilization in percentage
system.mem_ctrls.busUtilRead                     0.05                       # Data bus utilization in percentage for reads
system.mem_ctrls.busUtilWrite                    0.00                       # Data bus utilization in percentage for writes
system.mem_ctrls.bw_inst_read::.cpu.inst      1380553                       # Instruction read bandwidth from this memory (bytes/s)
system.mem_ctrls.bw_inst_read::total          1380553                       # Instruction read bandwidth from this memory (bytes/s)
system.mem_ctrls.bw_read::.cpu.inst           1380553                       # Total read bandwidth from this memory (bytes/s)
system.mem_ctrls.bw_read::.cpu.data           4732862                       # Total read bandwidth from this memory (bytes/s)
system.mem_ctrls.bw_read::total               6113415                       # Total read bandwidth from this memory (bytes/s)
system.mem_ctrls.bw_total::.cpu.inst          1380553                       # Total bandwidth to/from this memory (bytes/s)
system.mem_ctrls.bw_total::.cpu.data          4732862                       # Total bandwidth to/from this memory (bytes/s)
system.mem_ctrls.bw_total::total              6113415                       # Total bandwidth to/from this memory (bytes/s)
system.mem_ctrls.bytesPerActivate::samples         1294                       # Bytes accessed per row activation
system.mem_ctrls.bytesPerActivate::mean    280.778980                       # Bytes accessed per row activation
system.mem_ctrls.bytesPerActivate::gmean   190.266050                       # Bytes accessed per row activation
system.mem_ctrls.bytesPerActivate::stdev   286.277718                       # Bytes accessed per row activation
system.mem_ctrls.bytesPerActivate::0-127          310     23.96%     23.96% # Bytes accessed per row activation
system.mem_ctrls.bytesPerActivate::128-255          597     46.14%     70.09% # Bytes accessed per row activation
system.mem_ctrls.bytesPerActivate::256-383          139     10.74%     80.83% # Bytes accessed per row activation
system.mem_ctrls.bytesPerActivate::384-511           42      3.25%     84.08% # Bytes accessed per row activation
system.mem_ctrls.bytesPerActivate::512-639           27      2.09%     86.17% # Bytes accessed per row activation
system.mem_ctrls.bytesPerActivate::640-767           18      1.39%     87.56% # Bytes accessed per row activation
system.mem_ctrls.bytesPerActivate::768-895           29      2.24%     89.80% # Bytes accessed per row activation
system.mem_ctrls.bytesPerActivate::896-1023           11      0.85%     90.65% # Bytes accessed per row activation
system.mem_ctrls.bytesPerActivate::1024-1151          121      9.35%    100.00% # Bytes accessed per row activation
system.mem_ctrls.bytesPerActivate::total         1294                       # Bytes accessed per row activation
system.mem_ctrls.bytesReadDRAM                 363328                       # Total number of bytes read from DRAM
system.mem_ctrls.bytesReadSys                  363328                       # Total read bytes from the system interface side
system.mem_ctrls.bytesReadWrQ                       0                       # Total number of bytes read from write queue
system.mem_ctrls.bytesWritten                       0                       # Total number of bytes written to DRAM
system.mem_ctrls.bytesWrittenSys                    0                       # Total written bytes from the system interface side
system.mem_ctrls.bytes_inst_read::.cpu.inst        82048                       # Number of instructions bytes read from this memory
system.mem_ctrls.bytes_inst_read::total         82048                       # Number of instructions bytes read from this memory
system.mem_ctrls.bytes_read::.cpu.inst          82048                       # Number of bytes read from this memory
system.mem_ctrls.bytes_read::.cpu.data         281280                       # Number of bytes read from this memory
system.mem_ctrls.bytes_read::total             363328                       # Number of bytes read from this memory
system.mem_ctrls.masterReadAccesses::.cpu.inst         1282                       # Per-master read serviced memory accesses
system.mem_ctrls.masterReadAccesses::.cpu.data         4395                       # Per-master read serviced memory accesses
system.mem_ctrls.masterReadAvgLat::.cpu.inst     25609.59                       # Per-master read average memory access latency
system.mem_ctrls.masterReadAvgLat::.cpu.data     26766.10                       # Per-master read average memory access latency
system.mem_ctrls.masterReadBytes::.cpu.inst        82048                       # Per-master bytes read from memory
system.mem_ctrls.masterReadBytes::.cpu.data       281280                       # Per-master bytes read from memory
system.mem_ctrls.masterReadRate::.cpu.inst 1380552.718805314275                       # Per-master bytes read from memory rate (Bytes/sec)
system.mem_ctrls.masterReadRate::.cpu.data 4732862.089820090681                       # Per-master bytes read from memory rate (Bytes/sec)
system.mem_ctrls.masterReadTotalLat::.cpu.inst     32831500                       # Per-master read total memory access latency
system.mem_ctrls.masterReadTotalLat::.cpu.data    117637000                       # Per-master read total memory access latency
system.mem_ctrls.mergedWrBursts                     0                       # Number of DRAM write bursts merged with an existing one
system.mem_ctrls.neitherReadNorWriteReqs            0                       # Number of requests that are neither read nor write
system.mem_ctrls.numRdRetry                         0                       # Number of times read queue was full causing retry
system.mem_ctrls.numReadWriteTurnArounds            0                       # Number of turnarounds from READ to WRITE
system.mem_ctrls.numStayReadState               26613                       # Number of times bus staying in READ state
system.mem_ctrls.numStayWriteState                  0                       # Number of times bus staying in WRITE state
system.mem_ctrls.numWrRetry                         0                       # Number of times write queue was full causing retry
system.mem_ctrls.numWriteReadTurnArounds            0                       # Number of turnarounds from WRITE to READ
system.mem_ctrls.num_reads::.cpu.inst            1282                       # Number of read requests responded to by this memory
system.mem_ctrls.num_reads::.cpu.data            4395                       # Number of read requests responded to by this memory
system.mem_ctrls.num_reads::total                5677                       # Number of read requests responded to by this memory
system.mem_ctrls.pageHitRate                    77.21                       # Row buffer hit rate, read and write combined
system.mem_ctrls.peakBW                      12800.00                       # Theoretical peak bandwidth in MiByte/s
system.mem_ctrls.perBankRdBursts::0               406                       # Per bank write bursts
system.mem_ctrls.perBankRdBursts::1               314                       # Per bank write bursts
[...]
system.mem_ctrls.wrQLenPdf::19                      0                       # What write queue length does an incoming req see
system.mem_ctrls.wrQLenPdf::20                      0                       # What write queue length does an incoming req see
system.mem_ctrls.wrQLenPdf::21                      0                       # What write queue length does an incoming req see
system.mem_ctrls.wrQLenPdf::22                      0                       # What write queue length does an incoming req see
system.mem_ctrls.wrQLenPdf::23                      0                       # What write queue length does an incoming req see
system.mem_ctrls.wrQLenPdf::24                      0                       # What write queue length does an incoming req see
system.mem_ctrls.wrQLenPdf::25                      0                       # What write queue length does an incoming req see
system.mem_ctrls.wrQLenPdf::26                      0                       # What write queue length does an incoming req see
system.mem_ctrls.wrQLenPdf::27                      0                       # What write queue length does an incoming req see
system.mem_ctrls.wrQLenPdf::28                      0                       # What write queue length does an incoming req see
system.mem_ctrls.wrQLenPdf::29                      0                       # What write queue length does an incoming req see
system.mem_ctrls.wrQLenPdf::30                      0                       # What write queue length does an incoming req see
system.mem_ctrls.wrQLenPdf::31                      0                       # What write queue length does an incoming req see
system.mem_ctrls.wrQLenPdf::32                      0                       # What write queue length does an incoming req see
system.mem_ctrls.wrQLenPdf::33                      0                       # What write queue length does an incoming req see
system.mem_ctrls.wrQLenPdf::34                      0                       # What write queue length does an incoming req see
system.mem_ctrls.wrQLenPdf::35                      0                       # What write queue length does an incoming req see
system.mem_ctrls.wrQLenPdf::36                      0                       # What write queue length does an incoming req see
system.mem_ctrls.wrQLenPdf::37                      0                       # What write queue length does an incoming req see
system.mem_ctrls.wrQLenPdf::38                      0                       # What write queue length does an incoming req see
system.mem_ctrls.wrQLenPdf::39                      0                       # What write queue length does an incoming req see
system.mem_ctrls.wrQLenPdf::40                      0                       # What write queue length does an incoming req see
system.mem_ctrls.wrQLenPdf::41                      0                       # What write queue length does an incoming req see
system.mem_ctrls.wrQLenPdf::42                      0                       # What write queue length does an incoming req see
system.mem_ctrls.wrQLenPdf::43                      0                       # What write queue length does an incoming req see
system.mem_ctrls.wrQLenPdf::44                      0                       # What write queue length does an incoming req see
system.mem_ctrls.wrQLenPdf::45                      0                       # What write queue length does an incoming req see
system.mem_ctrls.wrQLenPdf::46                      0                       # What write queue length does an incoming req see
system.mem_ctrls.wrQLenPdf::47                      0                       # What write queue length does an incoming req see
system.mem_ctrls.wrQLenPdf::48                      0                       # What write queue length does an incoming req see
system.mem_ctrls.wrQLenPdf::49                      0                       # What write queue length does an incoming req see
system.mem_ctrls.wrQLenPdf::50                      0                       # What write queue length does an incoming req see
system.mem_ctrls.wrQLenPdf::51                      0                       # What write queue length does an incoming req see
system.mem_ctrls.wrQLenPdf::52                      0                       # What write queue length does an incoming req see
system.mem_ctrls.wrQLenPdf::53                      0                       # What write queue length does an incoming req see
system.mem_ctrls.wrQLenPdf::54                      0                       # What write queue length does an incoming req see
system.mem_ctrls.wrQLenPdf::55                      0                       # What write queue length does an incoming req see
system.mem_ctrls.wrQLenPdf::56                      0                       # What write queue length does an incoming req see
system.mem_ctrls.wrQLenPdf::57                      0                       # What write queue length does an incoming req see
system.mem_ctrls.wrQLenPdf::58                      0                       # What write queue length does an incoming req see
system.mem_ctrls.wrQLenPdf::59                      0                       # What write queue length does an incoming req see
system.mem_ctrls.wrQLenPdf::60                      0                       # What write queue length does an incoming req see
system.mem_ctrls.wrQLenPdf::61                      0                       # What write queue length does an incoming req see
system.mem_ctrls.wrQLenPdf::62                      0                       # What write queue length does an incoming req see
system.mem_ctrls.wrQLenPdf::63                      0                       # What write queue length does an incoming req see
system.mem_ctrls.writeBursts                        0                       # Number of DRAM write bursts, including those merged in the write queue
system.mem_ctrls.writePktSize::0                    0                       # Write request sizes (log2)
system.mem_ctrls.writePktSize::1                    0                       # Write request sizes (log2)
system.mem_ctrls.writePktSize::2                    0                       # Write request sizes (log2)
system.mem_ctrls.writePktSize::3                    0                       # Write request sizes (log2)
system.mem_ctrls.writePktSize::4                    0                       # Write request sizes (log2)
system.mem_ctrls.writePktSize::5                    0                       # Write request sizes (log2)
system.mem_ctrls.writePktSize::6                    0                       # Write request sizes (log2)
system.mem_ctrls.writeReqs                          0                       # Number of write requests accepted
system.mem_ctrls.writeRowHitRate                  nan                       # Row buffer hit rate for writes
system.mem_ctrls.writeRowHits                       0                       # Number of row buffer hits during writes
system.mem_ctrls_0.actBackEnergy           1573944990                       # Energy for active background per rank (pJ)
system.mem_ctrls_0.actEnergy                  4341120                       # Energy for activate commands per rank (pJ)
system.mem_ctrls_0.actPowerDownEnergy               0                       # Energy for active power-down per rank (pJ)
system.mem_ctrls_0.averagePower            467.572372                       # Core power per rank (mW)
system.mem_ctrls_0.memoryStateTime::IDLE  55870651500                       # Time in different power states
system.mem_ctrls_0.memoryStateTime::REF    1984320000                       # Time in different power states
system.mem_ctrls_0.memoryStateTime::SREF            0                       # Time in different power states
system.mem_ctrls_0.memoryStateTime::PRE_PDN            0                       # Time in different power states
system.mem_ctrls_0.memoryStateTime::ACT    1576297500                       # Time in different power states
system.mem_ctrls_0.memoryStateTime::ACT_PDN            0                       # Time in different power states
system.mem_ctrls_0.preBackEnergy          21496180320                       # Energy for precharge background per rank (pJ)
system.mem_ctrls_0.preEnergy                  2307360                       # Energy for precharge commands per rank (pJ)
system.mem_ctrls_0.prePowerDownEnergy               0                       # Energy for precharge power-down per rank (pJ)
system.mem_ctrls_0.readEnergy                20713140                       # Energy for read commands per rank (pJ)
system.mem_ctrls_0.refreshEnergy         4690932480.000001                       # Energy for refresh commands per rank (pJ)
system.mem_ctrls_0.selfRefreshEnergy                0                       # Energy for self refresh per rank (pJ)
system.mem_ctrls_0.totalEnergy            27788419410                       # Total energy per rank (pJ)
system.mem_ctrls_0.totalIdleTime                    0                       # Total Idle time Per DRAM Rank
system.mem_ctrls_0.writeEnergy                      0                       # Energy for write commands per rank (pJ)
system.mem_ctrls_1.actBackEnergy           1698985320                       # Energy for active background per rank (pJ)
system.mem_ctrls_1.actEnergy                  4898040                       # Energy for activate commands per rank (pJ)
system.mem_ctrls_1.actPowerDownEnergy               0                       # Energy for active power-down per rank (pJ)
system.mem_ctrls_1.averagePower            467.903908                       # Core power per rank (mW)
system.mem_ctrls_1.memoryStateTime::IDLE  55595844750                       # Time in different power states
system.mem_ctrls_1.memoryStateTime::REF    1984320000                       # Time in different power states
system.mem_ctrls_1.memoryStateTime::SREF            0                       # Time in different power states
system.mem_ctrls_1.memoryStateTime::PRE_PDN            0                       # Time in different power states
system.mem_ctrls_1.memoryStateTime::ACT    1851104250                       # Time in different power states
system.mem_ctrls_1.memoryStateTime::ACT_PDN            0                       # Time in different power states
system.mem_ctrls_1.preBackEnergy          21390883200                       # Energy for precharge background per rank (pJ)
system.mem_ctrls_1.preEnergy                  2603370                       # Energy for precharge commands per rank (pJ)
system.mem_ctrls_1.prePowerDownEnergy               0                       # Energy for precharge power-down per rank (pJ)
system.mem_ctrls_1.readEnergy                19820640                       # Energy for read commands per rank (pJ)
system.mem_ctrls_1.refreshEnergy         4690932480.000001                       # Energy for refresh commands per rank (pJ)
system.mem_ctrls_1.selfRefreshEnergy                0                       # Energy for self refresh per rank (pJ)
system.mem_ctrls_1.totalEnergy            27808123050                       # Total energy per rank (pJ)
system.mem_ctrls_1.totalIdleTime                    0                       # Total Idle time Per DRAM Rank
system.mem_ctrls_1.writeEnergy                      0                       # Energy for write commands per rank (pJ)
system.membus.pkt_count_system.l2.mem_side::system.mem_ctrls.port        11354                       # Packet count per connected master and slave (bytes)
system.membus.pkt_count::total                  11354                       # Packet count per connected master and slave (bytes)
system.membus.pkt_size_system.l2.mem_side::system.mem_ctrls.port       363328                       # Cumulative packet size per connected master and slave (bytes)
system.membus.pkt_size::total                  363328                       # Cumulative packet size per connected master and slave (bytes)
system.membus.pwrStateResidencyTicks::UNDEFINED  59431269000                       # Cumulative time (in ticks) in various power states
system.membus.reqLayer0.occupancy             6931500                       # Layer occupancy (ticks)
system.membus.reqLayer0.utilization               0.0                       # Layer utilization (%)
system.membus.respLayer1.occupancy           30126000                       # Layer occupancy (ticks)
system.membus.respLayer1.utilization              0.1                       # Layer utilization (%)
system.membus.snoopTraffic                          0                       # Total snoop traffic (bytes)
system.membus.snoop_fanout::samples              5677                       # Request fanout histogram
system.membus.snoop_fanout::mean                    0                       # Request fanout histogram
system.membus.snoop_fanout::stdev                   0                       # Request fanout histogram
system.membus.snoop_fanout::underflows              0      0.00%      0.00% # Request fanout histogram
system.membus.snoop_fanout::0                    5677    100.00%    100.00% # Request fanout histogram
system.membus.snoop_fanout::1                       0      0.00%    100.00% # Request fanout histogram
system.membus.snoop_fanout::overflows               0      0.00%    100.00% # Request fanout histogram
system.membus.snoop_fanout::min_value               0                       # Request fanout histogram
system.membus.snoop_fanout::max_value               0                       # Request fanout histogram
system.membus.snoop_fanout::total                5677                       # Request fanout histogram
system.membus.snoop_filter.hit_multi_requests            0                       # Number of requests hitting in the snoop filter with multiple (>1) holders of the requested data.
system.membus.snoop_filter.hit_multi_snoops            0                       # Number of snoops hitting in the snoop filter with multiple (>1) holders of the requested data.
system.membus.snoop_filter.hit_single_requests            0                       # Number of requests hitting in the snoop filter with a single holder of the requested data.
system.membus.snoop_filter.hit_single_snoops            0                       # Number of snoops hitting in the snoop filter with a single holder of the requested data.
system.membus.snoop_filter.tot_requests          5677                       # Total number of requests made to the snoop filter.
system.membus.snoop_filter.tot_snoops               0                       # Total number of snoops made to the snoop filter.
system.membus.snoops                                0                       # Total snoops (count)
system.membus.trans_dist::ReadResp               2004                       # Transaction distribution
system.membus.trans_dist::ReadExReq              3673                       # Transaction distribution
system.membus.trans_dist::ReadExResp             3673                       # Transaction distribution
system.membus.trans_dist::ReadSharedReq          2004                       # Transaction distribution
system.tol2bus.pkt_count_system.cpu.icache.mem_side::system.l2.cpu_side         6036                       # Packet count per connected master and slave (bytes)
system.tol2bus.pkt_count_system.cpu.dcache.mem_side::system.l2.cpu_side       197681                       # Packet count per connected master and slave (bytes)
system.tol2bus.pkt_count::total                203717                       # Packet count per connected master and slave (bytes)
system.tol2bus.pkt_size_system.cpu.icache.mem_side::system.l2.cpu_side       246976                       # Cumulative packet size per connected master and slave (bytes)
system.tol2bus.pkt_size_system.cpu.dcache.mem_side::system.l2.cpu_side      8282048                       # Cumulative packet size per connected master and slave (bytes)
system.tol2bus.pkt_size::total                8529024                       # Cumulative packet size per connected master and slave (bytes)
system.tol2bus.pwrStateResidencyTicks::UNDEFINED  59431269000                       # Cumulative time (in ticks) in various power states
system.tol2bus.reqLayer0.occupancy          132506500                       # Layer occupancy (ticks)
system.tol2bus.reqLayer0.utilization              0.2                       # Layer utilization (%)
system.tol2bus.respLayer0.occupancy           3266498                       # Layer occupancy (ticks)
system.tol2bus.respLayer0.utilization             0.0                       # Layer utilization (%)
system.tol2bus.respLayer1.occupancy          99354995                       # Layer occupancy (ticks)
system.tol2bus.respLayer1.utilization             0.2                       # Layer utilization (%)
system.tol2bus.snoopTraffic                         0                       # Total snoop traffic (bytes)
system.tol2bus.snoop_fanout::samples            68412                       # Request fanout histogram
system.tol2bus.snoop_fanout::mean            0.011942                       # Request fanout histogram
system.tol2bus.snoop_fanout::stdev           0.108627                       # Request fanout histogram
system.tol2bus.snoop_fanout::underflows             0      0.00%      0.00% # Request fanout histogram
system.tol2bus.snoop_fanout::0                  67595     98.81%     98.81% # Request fanout histogram
system.tol2bus.snoop_fanout::1                    817      1.19%    100.00% # Request fanout histogram
system.tol2bus.snoop_fanout::2                      0      0.00%    100.00% # Request fanout histogram
system.tol2bus.snoop_fanout::overflows              0      0.00%    100.00% # Request fanout histogram
system.tol2bus.snoop_fanout::min_value              0                       # Request fanout histogram
system.tol2bus.snoop_fanout::max_value              1                       # Request fanout histogram
system.tol2bus.snoop_fanout::total              68412                       # Request fanout histogram
system.tol2bus.snoop_filter.hit_multi_requests          807                       # Number of requests hitting in the snoop filter with multiple (>1) holders of the requested data.
system.tol2bus.snoop_filter.hit_multi_snoops            0                       # Number of snoops hitting in the snoop filter with multiple (>1) holders of the requested data.
system.tol2bus.snoop_filter.hit_single_requests        66903                       # Number of requests hitting in the snoop filter with a single holder of the requested data.
system.tol2bus.snoop_filter.hit_single_snoops            0                       # Number of snoops hitting in the snoop filter with a single holder of the requested data.
system.tol2bus.snoop_filter.tot_requests       135305                       # Total number of requests made to the snoop filter.
system.tol2bus.snoop_filter.tot_snoops              0                       # Total number of snoops made to the snoop filter.
system.tol2bus.snoops                               0                       # Total snoops (count)
system.tol2bus.trans_dist::ReadResp             15411                       # Transaction distribution
system.tol2bus.trans_dist::WritebackDirty        63172                       # Transaction distribution
system.tol2bus.trans_dist::WritebackClean         1682                       # Transaction distribution
system.tol2bus.trans_dist::CleanEvict            2039                       # Transaction distribution
system.tol2bus.trans_dist::ReadExReq            53001                       # Transaction distribution
system.tol2bus.trans_dist::ReadExResp           53001                       # Transaction distribution
system.tol2bus.trans_dist::ReadCleanReq          2177                       # Transaction distribution
system.tol2bus.trans_dist::ReadSharedReq        13234                       # Transaction distribution
system.voltage_domain.voltage                       1                       # Voltage in Volts

---------- End Simulation Statistics   ----------
