
---------- Begin Simulation Statistics ----------
final_tick                               704063335000                       # Number of ticks from beginning of simulation (restored from checkpoints and never reset)
host_inst_rate                                  59232                       # Simulator instruction rate (inst/s)
host_mem_usage                                 725588                       # Number of bytes of host memory used
host_op_rate                                   109091                       # Simulator op (including micro ops) rate (op/s)
host_seconds                                  1688.29                       # Real time elapsed on the host
host_tick_rate                              417027830                       # Simulator tick rate (ticks/s)
sim_freq                                 1000000000000                       # Frequency of simulated ticks
sim_insts                                   100000001                       # Number of instructions simulated
sim_ops                                     184176409                       # Number of ops (including micro ops) simulated
sim_seconds                                  0.704063                       # Number of seconds simulated
sim_ticks                                704063335000                       # Number of ticks simulated
system.cpu.branchPred.BTBCorrect                    0                       # Number of correct BTB predictions (this stat may not work properly.
system.cpu.branchPred.BTBHitPct             99.957041                       # BTB Hit Percentage
system.cpu.branchPred.BTBHits                10561257                       # Number of BTB hits
system.cpu.branchPred.BTBLookups             10565796                       # Number of BTB lookups
system.cpu.branchPred.RASInCorrect                  5                       # Number of incorrect RAS predictions.
system.cpu.branchPred.condIncorrect              1454                       # Number of conditional branches incorrect
system.cpu.branchPred.condPredicted          10562159                       # Number of conditional branches predicted
system.cpu.branchPred.indirectHits                 29                       # Number of indirect target hits.
system.cpu.branchPred.indirectLookups             195                       # Number of indirect predictor lookups.
system.cpu.branchPred.indirectMisses              166                       # Number of indirect misses.
system.cpu.branchPred.lookups                10570390                       # Number of BP lookups
system.cpu.branchPred.usedRAS                    2703                       # Number of times the RAS was used to get a target.
system.cpu.branchPredindirectMispredicted          101                       # Number of mispredicted indirect branches.
system.cpu.committedInsts                   100000001                       # Number of instructions committed
system.cpu.committedOps                     184176409                       # Number of ops (including micro ops) committed
system.cpu.cpi                               7.040633                       # CPI: cycles per instruction
system.cpu.discardedOps                          4241                       # Number of ops (including micro ops) which were discarded before commit
system.cpu.dtb.accesses                             0                       # DTB accesses
system.cpu.dtb.align_faults                         0                       # Number of TLB faults due to alignment restrictions
system.cpu.dtb.domain_faults                        0                       # Number of TLB faults due to domain restrictions
system.cpu.dtb.flush_entries                        0                       # Number of entries that have been flushed from TLB
system.cpu.dtb.flush_tlb                            0                       # Number of times complete TLB was flushed
system.cpu.dtb.flush_tlb_asid                       0                       # Number of times TLB was flushed by ASID
system.cpu.dtb.flush_tlb_mva                        0                       # Number of times TLB was flushed by MVA
system.cpu.dtb.flush_tlb_mva_asid                   0                       # Number of times TLB was flushed by MVA & ASID
system.cpu.dtb.hits                                 0                       # DTB hits
system.cpu.dtb.inst_accesses                        0                       # ITB inst accesses
system.cpu.dtb.inst_hits                            0                       # ITB inst hits
system.cpu.dtb.inst_misses                          0                       # ITB inst misses
system.cpu.dtb.misses                               0                       # DTB misses
system.cpu.dtb.perms_faults                         0                       # Number of TLB faults due to permissions restrictions
system.cpu.dtb.prefetch_faults                      0                       # Number of TLB faults due to prefetch
system.cpu.dtb.read_accesses                        0                       # DTB read accesses
system.cpu.dtb.read_hits                            0                       # DTB read hits
system.cpu.dtb.read_misses                          0                       # DTB read misses
system.cpu.dtb.stage2_mmu.stage2_tlb.accesses            0                       # DTB accesses
system.cpu.dtb.stage2_mmu.stage2_tlb.align_faults            0                       # Number of TLB faults due to alignment restrictions
system.cpu.dtb.stage2_mmu.stage2_tlb.domain_faults            0                       # Number of TLB faults due to domain restrictions
system.cpu.dtb.stage2_mmu.stage2_tlb.flush_entries            0                       # Number of entries that have been flushed from TLB
system.cpu.dtb.stage2_mmu.stage2_tlb.flush_tlb            0                       # Number of times complete TLB was flushed
system.cpu.dtb.stage2_mmu.stage2_tlb.flush_tlb_asid            0                       # Number of times TLB was flushed by ASID
system.cpu.dtb.stage2_mmu.stage2_tlb.flush_tlb_mva            0                       # Number of times TLB was flushed by MVA
system.cpu.dtb.stage2_mmu.stage2_tlb.flush_tlb_mva_asid            0                       # Number of times TLB was flushed by MVA & ASID
system.cpu.dtb.stage2_mmu.stage2_tlb.hits            0                       # DTB hits
system.cpu.dtb.stage2_mmu.stage2_tlb.inst_accesses            0                       # ITB inst accesses
system.cpu.dtb.stage2_mmu.stage2_tlb.inst_hits            0                       # ITB inst hits
system.cpu.dtb.stage2_mmu.stage2_tlb.inst_misses            0                       # ITB inst misses
system.cpu.dtb.stage2_mmu.stage2_tlb.misses            0                       # DTB misses
system.cpu.dtb.stage2_mmu.stage2_tlb.perms_faults            0                       # Number of TLB faults due to permissions restrictions
system.cpu.dtb.stage2_mmu.stage2_tlb.prefetch_faults            0                       # Number of TLB faults due to prefetch
system.cpu.dtb.stage2_mmu.stage2_tlb.read_accesses            0                       # DTB read accesses
system.cpu.dtb.stage2_mmu.stage2_tlb.read_hits            0                       # DTB read hits
system.cpu.dtb.stage2_mmu.stage2_tlb.read_misses            0                       # DTB read misses
system.cpu.dtb.stage2_mmu.stage2_tlb.walker.walkRequestOrigin_Requested::Data            0                       # Table walker requests started/completed, data/inst
system.cpu.dtb.stage2_mmu.stage2_tlb.walker.walkRequestOrigin_Requested::Inst            0                       # Table walker requests started/completed, data/inst
system.cpu.dtb.stage2_mmu.stage2_tlb.walker.walkRequestOrigin_Requested::total            0                       # Table walker requests started/completed, data/inst
system.cpu.dtb.stage2_mmu.stage2_tlb.walker.walkRequestOrigin_Completed::Data            0                       # Table walker requests started/completed, data/inst
system.cpu.dtb.stage2_mmu.stage2_tlb.walker.walkRequestOrigin_Completed::Inst            0                       # Table walker requests started/completed, data/inst
system.cpu.dtb.stage2_mmu.stage2_tlb.walker.walkRequestOrigin_Completed::total            0                       # Table walker requests started/completed, data/inst
system.cpu.dtb.stage2_mmu.stage2_tlb.walker.walkRequestOrigin::total            0                       # Table walker requests started/completed, data/inst
system.cpu.dtb.stage2_mmu.stage2_tlb.walker.walks            0                       # Table walker walks requested
system.cpu.dtb.stage2_mmu.stage2_tlb.write_accesses            0                       # DTB write accesses
system.cpu.dtb.stage2_mmu.stage2_tlb.write_hits            0                       # DTB write hits
system.cpu.dtb.stage2_mmu.stage2_tlb.write_misses            0                       # DTB write misses
system.cpu.dtb.walker.walkRequestOrigin_Requested::Data            0                       # Table walker requests started/completed, data/inst
system.cpu.dtb.walker.walkRequestOrigin_Requested::Inst            0                       # Table walker requests started/completed, data/inst
system.cpu.dtb.walker.walkRequestOrigin_Requested::total            0                       # Table walker requests started/completed, data/inst
system.cpu.dtb.walker.walkRequestOrigin_Completed::Data            0                       # Table walker requests started/completed, data/inst
system.cpu.dtb.walker.walkRequestOrigin_Completed::Inst            0                       # Table walker requests started/completed, data/inst
system.cpu.dtb.walker.walkRequestOrigin_Completed::total            0                       # Table walker requests started/completed, data/inst
system.cpu.dtb.walker.walkRequestOrigin::total            0                       # Table walker requests started/completed, data/inst
system.cpu.dtb.walker.walks                         0                       # Table walker walks requested
system.cpu.dtb.write_accesses                       0                       # DTB write accesses
system.cpu.dtb.write_hits                           0                       # DTB write hits
system.cpu.dtb.write_misses                         0                       # DTB write misses
system.cpu.fetch2.amo_instructions                  0                       # Number of memory atomic instructions successfully decoded
system.cpu.fetch2.fp_instructions                   0                       # Number of floating point instructions successfully decoded
system.cpu.fetch2.int_instructions           44893732                       # Number of integer instructions successfully decoded
system.cpu.fetch2.load_instructions           2086111                       # Number of memory load instructions successfully decoded
system.cpu.fetch2.store_instructions           169104                       # Number of memory store instructions successfully decoded
system.cpu.fetch2.vec_instructions                  0                       # Number of SIMD instructions successfully decoded
system.cpu.idleCycles                       482859855                       # Total number of cycles that the object has spent stopped
system.cpu.ipc                               0.142033                       # IPC: instructions per cycle
system.cpu.itb.accesses                             0                       # DTB accesses
system.cpu.itb.align_faults                         0                       # Number of TLB faults due to alignment restrictions
system.cpu.itb.domain_faults                        0                       # Number of TLB faults due to domain restrictions
system.cpu.itb.flush_entries                        0                       # Number of entries that have been flushed from TLB
system.cpu.itb.flush_tlb                            0                       # Number of times complete TLB was flushed
system.cpu.itb.flush_tlb_asid                       0                       # Number of times TLB was flushed by ASID
system.cpu.itb.flush_tlb_mva                        0                       # Number of times TLB was flushed by MVA
system.cpu.itb.flush_tlb_mva_asid                   0                       # Number of times TLB was flushed by MVA & ASID
system.cpu.itb.hits                                 0                       # DTB hits
system.cpu.itb.inst_accesses                        0                       # ITB inst accesses
system.cpu.itb.inst_hits                            0                       # ITB inst hits
system.cpu.itb.inst_misses                          0                       # ITB inst misses
system.cpu.itb.misses                               0                       # DTB misses
system.cpu.itb.perms_faults                         0                       # Number of TLB faults due to permissions restrictions
system.cpu.itb.prefetch_faults                      0                       # Number of TLB faults due to prefetch
system.cpu.itb.read_accesses                        0                       # DTB read accesses
system.cpu.itb.read_hits                            0                       # DTB read hits
system.cpu.itb.read_misses                          0                       # DTB read misses
system.cpu.itb.stage2_mmu.stage2_tlb.accesses            0                       # DTB accesses
system.cpu.itb.stage2_mmu.stage2_tlb.align_faults            0                       # Number of TLB faults due to alignment restrictions
system.cpu.itb.stage2_mmu.stage2_tlb.domain_faults            0                       # Number of TLB faults due to domain restrictions
system.cpu.itb.stage2_mmu.stage2_tlb.flush_entries            0                       # Number of entries that have been flushed from TLB
system.cpu.itb.stage2_mmu.stage2_tlb.flush_tlb            0                       # Number of times complete TLB was flushed
system.cpu.itb.stage2_mmu.stage2_tlb.flush_tlb_asid            0                       # Number of times TLB was flushed by ASID
system.cpu.itb.stage2_mmu.stage2_tlb.flush_tlb_mva            0                       # Number of times TLB was flushed by MVA
system.cpu.itb.stage2_mmu.stage2_tlb.flush_tlb_mva_asid            0                       # Number of times TLB was flushed by MVA & ASID
system.cpu.itb.stage2_mmu.stage2_tlb.hits            0                       # DTB hits
system.cpu.itb.stage2_mmu.stage2_tlb.inst_accesses            0                       # ITB inst accesses
system.cpu.itb.stage2_mmu.stage2_tlb.inst_hits            0                       # ITB inst hits
system.cpu.itb.stage2_mmu.stage2_tlb.inst_misses            0                       # ITB inst misses
system.cpu.itb.stage2_mmu.stage2_tlb.misses            0                       # DTB misses
system.cpu.itb.stage2_mmu.stage2_tlb.perms_faults            0                       # Number of TLB faults due to permissions restrictions
system.cpu.itb.stage2_mmu.stage2_tlb.prefetch_faults            0                       # Number of TLB faults due to prefetch
system.cpu.itb.stage2_mmu.stage2_tlb.read_accesses            0                       # DTB read accesses
system.cpu.itb.stage2_mmu.stage2_tlb.read_hits            0                       # DTB read hits
system.cpu.itb.stage2_mmu.stage2_tlb.read_misses            0                       # DTB read misses
system.cpu.itb.stage2_mmu.stage2_tlb.walker.walkRequestOrigin_Requested::Data            0                       # Table walker requests started/completed, data/inst
system.cpu.itb.stage2_mmu.stage2_tlb.walker.walkRequestOrigin_Requested::Inst            0                       # Table walker requests started/completed, data/inst
system.cpu.itb.stage2_mmu.stage2_tlb.walker.walkRequestOrigin_Requested::total            0                       # Table walker requests started/completed, data/inst
system.cpu.itb.stage2_mmu.stage2_tlb.walker.walkRequestOrigin_Completed::Data            0                       # Table walker requests started/completed, data/inst
system.cpu.itb.stage2_mmu.stage2_tlb.walker.walkRequestOrigin_Completed::Inst            0                       # Table walker requests started/completed, data/inst
system.cpu.itb.stage2_mmu.stage2_tlb.walker.walkRequestOrigin_Completed::total            0                       # Table walker requests started/completed, data/inst
system.cpu.itb.stage2_mmu.stage2_tlb.walker.walkRequestOrigin::total            0                       # Table walker requests started/completed, data/inst
system.cpu.itb.stage2_mmu.stage2_tlb.walker.walks            0                       # Table walker walks requested
system.cpu.itb.stage2_mmu.stage2_tlb.write_accesses            0                       # DTB write accesses
system.cpu.itb.stage2_mmu.stage2_tlb.write_hits            0                       # DTB write hits
system.cpu.itb.stage2_mmu.stage2_tlb.write_misses            0                       # DTB write misses
system.cpu.itb.walker.walkRequestOrigin_Requested::Data            0                       # Table walker requests started/completed, data/inst
system.cpu.itb.walker.walkRequestOrigin_Requested::Inst            0                       # Table walker requests started/completed, data/inst
system.cpu.itb.walker.walkRequestOrigin_Requested::total            0                       # Table walker requests started/completed, data/inst
system.cpu.itb.walker.walkRequestOrigin_Completed::Data            0                       # Table walker requests started/completed, data/inst
system.cpu.itb.walker.walkRequestOrigin_Completed::Inst            0                       # Table walker requests started/completed, data/inst
system.cpu.itb.walker.walkRequestOrigin_Completed::total            0                       # Table walker requests started/completed, data/inst
system.cpu.itb.walker.walkRequestOrigin::total            0                       # Table walker requests started/completed, data/inst
system.cpu.itb.walker.walks                         0                       # Table walker walks requested
system.cpu.itb.write_accesses                       0                       # DTB write accesses
system.cpu.itb.write_hits                           0                       # DTB write hits
system.cpu.itb.write_misses                         0                       # DTB write misses
system.cpu.numCycles                        704063335                       # number of cpu cycles simulated
system.cpu.numFetchSuspends                         0                       # Number of times Execute suspended instruction fetching
system.cpu.numWorkItemsCompleted                    0                       # number of work items this cpu completed
system.cpu.numWorkItemsStarted                      0                       # number of work items this cpu started
system.cpu.op_class_0::No_OpClass                   0      0.00%      0.00% # Class of committed instruction
system.cpu.op_class_0::IntAlu                97640473     53.01%     53.01% # Class of committed instruction
system.cpu.op_class_0::IntMult                 114699      0.06%     53.08% # Class of committed instruction
system.cpu.op_class_0::IntDiv                       0      0.00%     53.08% # Class of committed instruction
system.cpu.op_class_0::FloatAdd                     0      0.00%     53.08% # Class of committed instruction
system.cpu.op_class_0::FloatCmp                     0      0.00%     53.08% # Class of committed instruction
system.cpu.op_class_0::FloatCvt                     0      0.00%     53.08% # Class of committed instruction
system.cpu.op_class_0::FloatMult                    0      0.00%     53.08% # Class of committed instruction
system.cpu.op_class_0::FloatMultAcc                 0      0.00%     53.08% # Class of committed instruction
system.cpu.op_class_0::FloatDiv                     0      0.00%     53.08% # Class of committed instruction
system.cpu.op_class_0::FloatMisc                    0      0.00%     53.08% # Class of committed instruction
system.cpu.op_class_0::FloatSqrt                    0      0.00%     53.08% # Class of committed instruction
system.cpu.op_class_0::SimdAdd                      8      0.00%     53.08% # Class of committed instruction
system.cpu.op_class_0::SimdAddAcc                   0      0.00%     53.08% # Class of committed instruction
system.cpu.op_class_0::SimdAlu                      8      0.00%     53.08% # Class of committed instruction
system.cpu.op_class_0::SimdCmp                      6      0.00%     53.08% # Class of committed instruction
system.cpu.op_class_0::SimdCvt                      0      0.00%     53.08% # Class of committed instruction
system.cpu.op_class_0::SimdMisc                     1      0.00%     53.08% # Class of committed instruction
system.cpu.op_class_0::SimdMult                     0      0.00%     53.08% # Class of committed instruction
system.cpu.op_class_0::SimdMultAcc                  0      0.00%     53.08% # Class of committed instruction
system.cpu.op_class_0::SimdShift                    0      0.00%     53.08% # Class of committed instruction
system.cpu.op_class_0::SimdShiftAcc                 0      0.00%     53.08% # Class of committed instruction
system.cpu.op_class_0::SimdDiv                      0      0.00%     53.08% # Class of committed instruction
system.cpu.op_class_0::SimdSqrt                     0      0.00%     53.08% # Class of committed instruction
system.cpu.op_class_0::SimdFloatAdd                 0      0.00%     53.08% # Class of committed instruction
system.cpu.op_class_0::SimdFloatAlu                 0      0.00%     53.08% # Class of committed instruction
system.cpu.op_class_0::SimdFloatCmp                 0      0.00%     53.08% # Class of committed instruction
system.cpu.op_class_0::SimdFloatCvt                 0      0.00%     53.08% # Class of committed instruction
system.cpu.op_class_0::SimdFloatDiv                 0      0.00%     53.08% # Class of committed instruction
system.cpu.op_class_0::SimdFloatMisc                6      0.00%     53.08% # Class of committed instruction
system.cpu.op_class_0::SimdFloatMult                0      0.00%     53.08% # Class of committed instruction
system.cpu.op_class_0::SimdFloatMultAcc             0      0.00%     53.08% # Class of committed instruction
system.cpu.op_class_0::SimdFloatSqrt                0      0.00%     53.08% # Class of committed instruction
system.cpu.op_class_0::SimdReduceAdd                0      0.00%     53.08% # Class of committed instruction
system.cpu.op_class_0::SimdReduceAlu                0      0.00%     53.08% # Class of committed instruction
system.cpu.op_class_0::SimdReduceCmp                0      0.00%     53.08% # Class of committed instruction
system.cpu.op_class_0::SimdFloatReduceAdd            0      0.00%     53.08% # Class of committed instruction
system.cpu.op_class_0::SimdFloatReduceCmp            0      0.00%     53.08% # Class of committed instruction
system.cpu.op_class_0::SimdAes                      0      0.00%     53.08% # Class of committed instruction
system.cpu.op_class_0::SimdAesMix                   0      0.00%     53.08% # Class of committed instruction
system.cpu.op_class_0::SimdSha1Hash                 0      0.00%     53.08% # Class of committed instruction
system.cpu.op_class_0::SimdSha1Hash2                0      0.00%     53.08% # Class of committed instruction
system.cpu.op_class_0::SimdSha256Hash               0      0.00%     53.08% # Class of committed instruction
system.cpu.op_class_0::SimdSha256Hash2              0      0.00%     53.08% # Class of committed instruction
system.cpu.op_class_0::SimdShaSigma2                0      0.00%     53.08% # Class of committed instruction
system.cpu.op_class_0::SimdShaSigma3                0      0.00%     53.08% # Class of committed instruction
system.cpu.op_class_0::SimdPredAlu                  0      0.00%     53.08% # Class of committed instruction
system.cpu.op_class_0::MemRead                2082588      1.13%     54.21% # Class of committed instruction
system.cpu.op_class_0::MemWrite              84338620     45.79%    100.00% # Class of committed instruction
system.cpu.op_class_0::FloatMemRead                 0      0.00%    100.00% # Class of committed instruction
system.cpu.op_class_0::FloatMemWrite                0      0.00%    100.00% # Class of committed instruction
system.cpu.op_class_0::IprAccess                    0      0.00%    100.00% # Class of committed instruction
system.cpu.op_class_0::InstPrefetch                 0      0.00%    100.00% # Class of committed instruction
system.cpu.op_class_0::total                184176409                       # Class of committed instruction
system.cpu.tickCycles                       221203480                       # Number of cycles that the object actually ticked
system.cpu.workload.numSyscalls                    19                       # Number of system calls
system.membus.snoop_filter.hit_multi_requests            0                       # Number of requests hitting in the snoop filter with multiple (>1) holders of the requested data.
system.membus.snoop_filter.hit_multi_snoops            0                       # Number of snoops hitting in the snoop filter with multiple (>1) holders of the requested data.
system.membus.snoop_filter.hit_single_requests      5230825                       # Number of requests hitting in the snoop filter with a single holder of the requested data.
system.membus.snoop_filter.hit_single_snoops            0                       # Number of snoops hitting in the snoop filter with a single holder of the requested data.
system.membus.snoop_filter.tot_requests      10494659                       # Total number of requests made to the snoop filter.
system.membus.snoop_filter.tot_snoops               0                       # Total number of snoops made to the snoop filter.
system.tol2bus.snoop_filter.hit_multi_requests           73                       # Number of requests hitting in the snoop filter with multiple (>1) holders of the requested data.
system.tol2bus.snoop_filter.hit_multi_snoops            0                       # Number of snoops hitting in the snoop filter with multiple (>1) holders of the requested data.
system.tol2bus.snoop_filter.hit_single_requests      5263380                       # Number of requests hitting in the snoop filter with a single holder of the requested data.
system.tol2bus.snoop_filter.hit_single_snoops          416                       # Number of snoops hitting in the snoop filter with a single holder of the requested data.
system.tol2bus.snoop_filter.tot_requests     10527520                       # Total number of requests made to the snoop filter.
system.tol2bus.snoop_filter.tot_snoops            416                       # Total number of snoops made to the snoop filter.
system.membus.pwrStateResidencyTicks::UNDEFINED 704063335000                       # Cumulative time (in ticks) in various power states
system.membus.trans_dist::ReadResp                851                       # Transaction distribution
system.membus.trans_dist::WritebackDirty      5230253                       # Transaction distribution
system.membus.trans_dist::CleanEvict              565                       # Transaction distribution
system.membus.trans_dist::ReadExReq           5262990                       # Transaction distribution
system.membus.trans_dist::ReadExResp          5262990                       # Transaction distribution
system.membus.trans_dist::ReadSharedReq           851                       # Transaction distribution
system.membus.pkt_count_system.l2.mem_side::system.mem_ctrls.port     15758500                       # Packet count per connected master and slave (bytes)
system.membus.pkt_count::total               15758500                       # Packet count per connected master and slave (bytes)
system.membus.pkt_size_system.l2.mem_side::system.mem_ctrls.port    671622016                       # Cumulative packet size per connected master and slave (bytes)
system.membus.pkt_size::total               671622016                       # Cumulative packet size per connected master and slave (bytes)
system.membus.snoops                                0                       # Total snoops (count)
system.membus.snoopTraffic                          0                       # Total snoop traffic (bytes)
system.membus.snoop_fanout::samples           5263841                       # Request fanout histogram
system.membus.snoop_fanout::mean                    0                       # Request fanout histogram
system.membus.snoop_fanout::stdev                   0                       # Request fanout histogram
system.membus.snoop_fanout::underflows              0      0.00%      0.00% # Request fanout histogram
system.membus.snoop_fanout::0                 5263841    100.00%    100.00% # Request fanout histogram
system.membus.snoop_fanout::1                       0      0.00%    100.00% # Request fanout histogram
system.membus.snoop_fanout::overflows               0      0.00%    100.00% # Request fanout histogram
system.membus.snoop_fanout::min_value               0                       # Request fanout histogram
system.membus.snoop_fanout::max_value               0                       # Request fanout histogram
system.membus.snoop_fanout::total             5263841                       # Request fanout histogram
system.membus.respLayer1.occupancy        27698157750                       # Layer occupancy (ticks)
system.membus.respLayer1.utilization              3.9                       # Layer utilization (%)
system.membus.reqLayer0.occupancy         31415671000                       # Layer occupancy (ticks)
system.membus.reqLayer0.utilization               4.5                       # Layer utilization (%)
system.tol2bus.pwrStateResidencyTicks::UNDEFINED 704063335000                       # Cumulative time (in ticks) in various power states
system.tol2bus.trans_dist::ReadResp              1090                       # Transaction distribution
system.tol2bus.trans_dist::WritebackDirty     10492875                       # Transaction distribution
system.tol2bus.trans_dist::WritebackClean          454                       # Transaction distribution
system.tol2bus.trans_dist::CleanEvict            1285                       # Transaction distribution
system.tol2bus.trans_dist::ReadExReq          5263050                       # Transaction distribution
system.tol2bus.trans_dist::ReadExResp         5263050                       # Transaction distribution
system.tol2bus.trans_dist::ReadCleanReq           702                       # Transaction distribution
system.tol2bus.trans_dist::ReadSharedReq          388                       # Transaction distribution
system.tol2bus.pkt_count_system.cpu.icache.mem_side::system.l2.cpu_side         1858                       # Packet count per connected master and slave (bytes)
system.tol2bus.pkt_count_system.cpu.dcache.mem_side::system.l2.cpu_side     15789802                       # Packet count per connected master and slave (bytes)
system.tol2bus.pkt_count::total              15791660                       # Packet count per connected master and slave (bytes)
system.tol2bus.pkt_size_system.cpu.icache.mem_side::system.l2.cpu_side        73984                       # Cumulative packet size per connected master and slave (bytes)
system.tol2bus.pkt_size_system.cpu.dcache.mem_side::system.l2.cpu_side    673667840                       # Cumulative packet size per connected master and slave (bytes)
system.tol2bus.pkt_size::total              673741824                       # Cumulative packet size per connected master and slave (bytes)
system.tol2bus.snoops                         5231234                       # Total snoops (count)
system.tol2bus.snoopTraffic                 334736192                       # Total snoop traffic (bytes)
system.tol2bus.snoop_fanout::samples         10495374                       # Request fanout histogram
system.tol2bus.snoop_fanout::mean            0.000047                       # Request fanout histogram
system.tol2bus.snoop_fanout::stdev           0.006826                       # Request fanout histogram
system.tol2bus.snoop_fanout::underflows             0      0.00%      0.00% # Request fanout histogram
system.tol2bus.snoop_fanout::0               10494885    100.00%    100.00% # Request fanout histogram
system.tol2bus.snoop_fanout::1                    489      0.00%    100.00% # Request fanout histogram
system.tol2bus.snoop_fanout::2                      0      0.00%    100.00% # Request fanout histogram
system.tol2bus.snoop_fanout::overflows              0      0.00%    100.00% # Request fanout histogram
system.tol2bus.snoop_fanout::min_value              0                       # Request fanout histogram
system.tol2bus.snoop_fanout::max_value              1                       # Request fanout histogram
system.tol2bus.snoop_fanout::total           10495374                       # Request fanout histogram
system.tol2bus.reqLayer0.occupancy        21053672000                       # Layer occupancy (ticks)
system.tol2bus.reqLayer0.utilization              3.0                       # Layer utilization (%)
system.tol2bus.respLayer1.occupancy       15790317996                       # Layer occupancy (ticks)
system.tol2bus.respLayer1.utilization             2.2                       # Layer utilization (%)
system.tol2bus.respLayer0.occupancy           2106999                       # Layer occupancy (ticks)
system.tol2bus.respLayer0.utilization             0.0                       # Layer utilization (%)
system.voltage_domain.voltage                       1                       # Voltage in Volts
system.clk_domain.clock                          1000                       # Clock period in ticks
system.l2.pwrStateResidencyTicks::UNDEFINED 704063335000                       # Cumulative time (in ticks) in various power states
system.l2.demand_hits::.cpu.inst                  116                       # number of demand (read+write) hits
system.l2.demand_hits::.cpu.data                  178                       # number of demand (read+write) hits
system.l2.demand_hits::total                      294                       # number of demand (read+write) hits
system.l2.overall_hits::.cpu.inst                 116                       # number of overall hits
system.l2.overall_hits::.cpu.data                 178                       # number of overall hits
system.l2.overall_hits::total                     294                       # number of overall hits
system.l2.demand_misses::.cpu.inst                586                       # number of demand (read+write) misses
system.l2.demand_misses::.cpu.data            5263260                       # number of demand (read+write) misses
system.l2.demand_misses::total                5263846                       # number of demand (read+write) misses
system.l2.overall_misses::.cpu.inst               586                       # number of overall misses
system.l2.overall_misses::.cpu.data           5263260                       # number of overall misses
system.l2.overall_misses::total               5263846                       # number of overall misses
system.l2.demand_miss_latency::.cpu.inst     58593000                       # number of demand (read+write) miss cycles
system.l2.demand_miss_latency::.cpu.data 524787846000                       # number of demand (read+write) miss cycles
system.l2.demand_miss_latency::total     524846439000                       # number of demand (read+write) miss cycles
system.l2.overall_miss_latency::.cpu.inst     58593000                       # number of overall miss cycles
system.l2.overall_miss_latency::.cpu.data 524787846000                       # number of overall miss cycles
system.l2.overall_miss_latency::total    524846439000                       # number of overall miss cycles
system.l2.demand_accesses::.cpu.inst              702                       # number of demand (read+write) accesses
system.l2.demand_accesses::.cpu.data          5263438                       # number of demand (read+write) accesses
system.l2.demand_accesses::total              5264140                       # number of demand (read+write) accesses
system.l2.overall_accesses::.cpu.inst             702                       # number of overall (read+write) accesses
system.l2.overall_accesses::.cpu.data         5263438                       # number of overall (read+write) accesses
system.l2.overall_accesses::total             5264140                       # number of overall (read+write) accesses
system.l2.demand_miss_rate::.cpu.inst        0.834758                       # miss rate for demand accesses
system.l2.demand_miss_rate::.cpu.data        0.999966                       # miss rate for demand accesses
system.l2.demand_miss_rate::total            0.999944                       # miss rate for demand accesses
system.l2.overall_miss_rate::.cpu.inst       0.834758                       # miss rate for overall accesses
system.l2.overall_miss_rate::.cpu.data       0.999966                       # miss rate for overall accesses
system.l2.overall_miss_rate::total           0.999944                       # miss rate for overall accesses
system.l2.demand_avg_miss_latency::.cpu.inst 99988.054608                       # average overall miss latency
system.l2.demand_avg_miss_latency::.cpu.data 99707.756410                       # average overall miss latency
system.l2.demand_avg_miss_latency::total 99707.787614                       # average overall miss latency
system.l2.overall_avg_miss_latency::.cpu.inst 99988.054608                       # average overall miss latency
system.l2.overall_avg_miss_latency::.cpu.data 99707.756410                       # average overall miss latency
system.l2.overall_avg_miss_latency::total 99707.787614                       # average overall miss latency
system.l2.blocked_cycles::no_mshrs                  0                       # number of cycles access was blocked
system.l2.blocked_cycles::no_targets                0                       # number of cycles access was blocked
system.l2.blocked::no_mshrs                         0                       # number of cycles access was blocked
system.l2.blocked::no_targets                       0                       # number of cycles access was blocked
system.l2.avg_blocked_cycles::no_mshrs            nan                       # average number of cycles each access was blocked
system.l2.avg_blocked_cycles::no_targets          nan                       # average number of cycles each access was blocked
system.l2.writebacks::.writebacks             5230253                       # number of writebacks
system.l2.writebacks::total                   5230253                       # number of writebacks
system.l2.demand_mshr_hits::.cpu.inst               1                       # number of demand (read+write) MSHR hits
system.l2.demand_mshr_hits::.cpu.data               4                       # number of demand (read+write) MSHR hits
system.l2.demand_mshr_hits::total                   5                       # number of demand (read+write) MSHR hits
system.l2.overall_mshr_hits::.cpu.inst              1                       # number of overall MSHR hits
system.l2.overall_mshr_hits::.cpu.data              4                       # number of overall MSHR hits
system.l2.overall_mshr_hits::total                  5                       # number of overall MSHR hits
system.l2.demand_mshr_misses::.cpu.inst           585                       # number of demand (read+write) MSHR misses
system.l2.demand_mshr_misses::.cpu.data       5263256                       # number of demand (read+write) MSHR misses
system.l2.demand_mshr_misses::total           5263841                       # number of demand (read+write) MSHR misses
system.l2.overall_mshr_misses::.cpu.inst          585                       # number of overall MSHR misses
system.l2.overall_mshr_misses::.cpu.data      5263256                       # number of overall MSHR misses
system.l2.overall_mshr_misses::total          5263841                       # number of overall MSHR misses
system.l2.demand_mshr_miss_latency::.cpu.inst     46793000                       # number of demand (read+write) MSHR miss cycles
system.l2.demand_mshr_miss_latency::.cpu.data 419522399000                       # number of demand (read+write) MSHR miss cycles
system.l2.demand_mshr_miss_latency::total 419569192000                       # number of demand (read+write) MSHR miss cycles
system.l2.overall_mshr_miss_latency::.cpu.inst     46793000                       # number of overall MSHR miss cycles
system.l2.overall_mshr_miss_latency::.cpu.data 419522399000                       # number of overall MSHR miss cycles
system.l2.overall_mshr_miss_latency::total 419569192000                       # number of overall MSHR miss cycles
system.l2.demand_mshr_miss_rate::.cpu.inst     0.833333                       # mshr miss rate for demand accesses
system.l2.demand_mshr_miss_rate::.cpu.data     0.999965                       # mshr miss rate for demand accesses
system.l2.demand_mshr_miss_rate::total       0.999943                       # mshr miss rate for demand accesses
system.l2.overall_mshr_miss_rate::.cpu.inst     0.833333                       # mshr miss rate for overall accesses
system.l2.overall_mshr_miss_rate::.cpu.data     0.999965                       # mshr miss rate for overall accesses
system.l2.overall_mshr_miss_rate::total      0.999943                       # mshr miss rate for overall accesses
system.l2.demand_avg_mshr_miss_latency::.cpu.inst 79988.034188                       # average overall mshr miss latency
system.l2.demand_avg_mshr_miss_latency::.cpu.data 79707.770057                       # average overall mshr miss latency
system.l2.demand_avg_mshr_miss_latency::total 79707.801204                       # average overall mshr miss latency
system.l2.overall_avg_mshr_miss_latency::.cpu.inst 79988.034188                       # average overall mshr miss latency
system.l2.overall_avg_mshr_miss_latency::.cpu.data 79707.770057                       # average overall mshr miss latency
system.l2.overall_avg_mshr_miss_latency::total 79707.801204                       # average overall mshr miss latency
system.l2.replacements                        5231234                       # number of replacements
system.l2.WritebackDirty_hits::.writebacks      5262622                       # number of WritebackDirty hits
system.l2.WritebackDirty_hits::total          5262622                       # number of WritebackDirty hits
system.l2.WritebackDirty_accesses::.writebacks      5262622                       # number of WritebackDirty accesses(hits+misses)
system.l2.WritebackDirty_accesses::total      5262622                       # number of WritebackDirty accesses(hits+misses)
system.l2.WritebackClean_hits::.writebacks          440                       # number of WritebackClean hits
system.l2.WritebackClean_hits::total              440                       # number of WritebackClean hits
system.l2.WritebackClean_accesses::.writebacks          440                       # number of WritebackClean accesses(hits+misses)
system.l2.WritebackClean_accesses::total          440                       # number of WritebackClean accesses(hits+misses)
system.l2.ReadExReq_hits::.cpu.data                60                       # number of ReadExReq hits
system.l2.ReadExReq_hits::total                    60                       # number of ReadExReq hits
system.l2.ReadExReq_misses::.cpu.data         5262990                       # number of ReadExReq misses
system.l2.ReadExReq_misses::total             5262990                       # number of ReadExReq misses
system.l2.ReadExReq_miss_latency::.cpu.data 524759632000                       # number of ReadExReq miss cycles
system.l2.ReadExReq_miss_latency::total  524759632000                       # number of ReadExReq miss cycles
system.l2.ReadExReq_accesses::.cpu.data       5263050                       # number of ReadExReq accesses(hits+misses)
system.l2.ReadExReq_accesses::total           5263050                       # number of ReadExReq accesses(hits+misses)
system.l2.ReadExReq_miss_rate::.cpu.data     0.999989                       # miss rate for ReadExReq accesses
system.l2.ReadExReq_miss_rate::total         0.999989                       # miss rate for ReadExReq accesses
system.l2.ReadExReq_avg_miss_latency::.cpu.data 99707.510750                       # average ReadExReq miss latency
system.l2.ReadExReq_avg_miss_latency::total 99707.510750                       # average ReadExReq miss latency
system.l2.ReadExReq_mshr_misses::.cpu.data      5262990                       # number of ReadExReq MSHR misses
system.l2.ReadExReq_mshr_misses::total        5262990                       # number of ReadExReq MSHR misses
system.l2.ReadExReq_mshr_miss_latency::.cpu.data 419499832000                       # number of ReadExReq MSHR miss cycles
system.l2.ReadExReq_mshr_miss_latency::total 419499832000                       # number of ReadExReq MSHR miss cycles
system.l2.ReadExReq_mshr_miss_rate::.cpu.data     0.999989                       # mshr miss rate for ReadExReq accesses
system.l2.ReadExReq_mshr_miss_rate::total     0.999989                       # mshr miss rate for ReadExReq accesses
system.l2.ReadExReq_avg_mshr_miss_latency::.cpu.data 79707.510750                       # average ReadExReq mshr miss latency
system.l2.ReadExReq_avg_mshr_miss_latency::total 79707.510750                       # average ReadExReq mshr miss latency
system.l2.ReadCleanReq_hits::.cpu.inst            116                       # number of ReadCleanReq hits
system.l2.ReadCleanReq_hits::total                116                       # number of ReadCleanReq hits
system.l2.ReadCleanReq_misses::.cpu.inst          586                       # number of ReadCleanReq misses
system.l2.ReadCleanReq_misses::total              586                       # number of ReadCleanReq misses
system.l2.ReadCleanReq_miss_latency::.cpu.inst     58593000                       # number of ReadCleanReq miss cycles
system.l2.ReadCleanReq_miss_latency::total     58593000                       # number of ReadCleanReq miss cycles
system.l2.ReadCleanReq_accesses::.cpu.inst          702                       # number of ReadCleanReq accesses(hits+misses)
system.l2.ReadCleanReq_accesses::total            702                       # number of ReadCleanReq accesses(hits+misses)
system.l2.ReadCleanReq_miss_rate::.cpu.inst     0.834758                       # miss rate for ReadCleanReq accesses
system.l2.ReadCleanReq_miss_rate::total      0.834758                       # miss rate for ReadCleanReq accesses
system.l2.ReadCleanReq_avg_miss_latency::.cpu.inst 99988.054608                       # average ReadCleanReq miss latency
system.l2.ReadCleanReq_avg_miss_latency::total 99988.054608                       # average ReadCleanReq miss latency
system.l2.ReadCleanReq_mshr_hits::.cpu.inst            1                       # number of ReadCleanReq MSHR hits
system.l2.ReadCleanReq_mshr_hits::total             1                       # number of ReadCleanReq MSHR hits
system.l2.ReadCleanReq_mshr_misses::.cpu.inst          585                       # number of ReadCleanReq MSHR misses
system.l2.ReadCleanReq_mshr_misses::total          585                       # number of ReadCleanReq MSHR misses
system.l2.ReadCleanReq_mshr_miss_latency::.cpu.inst     46793000                       # number of ReadCleanReq MSHR miss cycles
system.l2.ReadCleanReq_mshr_miss_latency::total     46793000                       # number of ReadCleanReq MSHR miss cycles
system.l2.ReadCleanReq_mshr_miss_rate::.cpu.inst     0.833333                       # mshr miss rate for ReadCleanReq accesses
system.l2.ReadCleanReq_mshr_miss_rate::total     0.833333                       # mshr miss rate for ReadCleanReq accesses
system.l2.ReadCleanReq_avg_mshr_miss_latency::.cpu.inst 79988.034188                       # average ReadCleanReq mshr miss latency
system.l2.ReadCleanReq_avg_mshr_miss_latency::total 79988.034188                       # average ReadCleanReq mshr miss latency
system.l2.ReadSharedReq_hits::.cpu.data           118                       # number of ReadSharedReq hits
system.l2.ReadSharedReq_hits::total               118                       # number of ReadSharedReq hits
system.l2.ReadSharedReq_misses::.cpu.data          270                       # number of ReadSharedReq misses
system.l2.ReadSharedReq_misses::total             270                       # number of ReadSharedReq misses
system.l2.ReadSharedReq_miss_latency::.cpu.data     28214000                       # number of ReadSharedReq miss cycles
system.l2.ReadSharedReq_miss_latency::total     28214000                       # number of ReadSharedReq miss cycles
system.l2.ReadSharedReq_accesses::.cpu.data          388                       # number of ReadSharedReq accesses(hits+misses)
system.l2.ReadSharedReq_accesses::total           388                       # number of ReadSharedReq accesses(hits+misses)
system.l2.ReadSharedReq_miss_rate::.cpu.data     0.695876                       # miss rate for ReadSharedReq accesses
system.l2.ReadSharedReq_miss_rate::total     0.695876                       # miss rate for ReadSharedReq accesses
system.l2.ReadSharedReq_avg_miss_latency::.cpu.data 104496.296296                       # average ReadSharedReq miss latency
system.l2.ReadSharedReq_avg_miss_latency::total 104496.296296                       # average ReadSharedReq miss latency
system.l2.ReadSharedReq_mshr_hits::.cpu.data            4                       # number of ReadSharedReq MSHR hits
system.l2.ReadSharedReq_mshr_hits::total            4                       # number of ReadSharedReq MSHR hits
system.l2.ReadSharedReq_mshr_misses::.cpu.data          266                       # number of ReadSharedReq MSHR misses
system.l2.ReadSharedReq_mshr_misses::total          266                       # number of ReadSharedReq MSHR misses
system.l2.ReadSharedReq_mshr_miss_latency::.cpu.data     22567000                       # number of ReadSharedReq MSHR miss cycles
system.l2.ReadSharedReq_mshr_miss_latency::total     22567000                       # number of ReadSharedReq MSHR miss cycles
system.l2.ReadSharedReq_mshr_miss_rate::.cpu.data     0.685567                       # mshr miss rate for ReadSharedReq accesses
system.l2.ReadSharedReq_mshr_miss_rate::total     0.685567                       # mshr miss rate for ReadSharedReq accesses
system.l2.ReadSharedReq_avg_mshr_miss_latency::.cpu.data 84838.345865                       # average ReadSharedReq mshr miss latency
system.l2.ReadSharedReq_avg_mshr_miss_latency::total 84838.345865                       # average ReadSharedReq mshr miss latency
system.l2.tags.pwrStateResidencyTicks::UNDEFINED 704063335000                       # Cumulative time (in ticks) in various power states
system.l2.tags.tagsinuse                 32429.773256                       # Cycle average of tags in use
system.l2.tags.total_refs                    10527442                       # Total number of references to valid blocks.
system.l2.tags.sampled_refs                   5264002                       # Sample count of references to valid blocks.
system.l2.tags.avg_refs                      1.999893                       # Average number of references to valid blocks.
system.l2.tags.warmup_cycle                     87000                       # Cycle when the warmup percentage was hit.
system.l2.tags.occ_blocks::.writebacks       0.908540                       # Average occupied blocks per requestor
system.l2.tags.occ_blocks::.cpu.inst         5.979599                       # Average occupied blocks per requestor
system.l2.tags.occ_blocks::.cpu.data     32422.885117                       # Average occupied blocks per requestor
system.l2.tags.occ_percent::.writebacks      0.000028                       # Average percentage of cache occupancy
system.l2.tags.occ_percent::.cpu.inst        0.000182                       # Average percentage of cache occupancy
system.l2.tags.occ_percent::.cpu.data        0.989468                       # Average percentage of cache occupancy
system.l2.tags.occ_percent::total            0.989678                       # Average percentage of cache occupancy
system.l2.tags.occ_task_id_blocks::1024         32768                       # Occupied blocks per task id
system.l2.tags.age_task_id_blocks_1024::0           76                       # Occupied blocks per task id
system.l2.tags.age_task_id_blocks_1024::1          679                       # Occupied blocks per task id
system.l2.tags.age_task_id_blocks_1024::2         6781                       # Occupied blocks per task id
system.l2.tags.age_task_id_blocks_1024::3        25232                       # Occupied blocks per task id
system.l2.tags.occ_task_id_percent::1024            1                       # Percentage of cache occupancy per task id
system.l2.tags.tag_accesses                  89483578                       # Number of tag accesses
system.l2.tags.data_accesses                 89483578                       # Number of data accesses
system.cpu_voltage_domain.voltage                   1                       # Voltage in Volts
system.mem_ctrls.pwrStateResidencyTicks::UNDEFINED 704063335000                       # Cumulative time (in ticks) in various power states
system.mem_ctrls.bytes_read::.cpu.inst          37440                       # Number of bytes read from this memory
system.mem_ctrls.bytes_read::.cpu.data      336848384                       # Number of bytes read from this memory
system.mem_ctrls.bytes_read::total          336885824                       # Number of bytes read from this memory
system.mem_ctrls.bytes_inst_read::.cpu.inst        37440                       # Number of instructions bytes read from this memory
system.mem_ctrls.bytes_inst_read::total         37440                       # Number of instructions bytes read from this memory
system.mem_ctrls.bytes_written::.writebacks    334736192                       # Number of bytes written to this memory
system.mem_ctrls.bytes_written::total       334736192                       # Number of bytes written to this memory
system.mem_ctrls.num_reads::.cpu.inst             585                       # Number of read requests responded to by this memory
system.mem_ctrls.num_reads::.cpu.data         5263256                       # Number of read requests responded to by this memory
system.mem_ctrls.num_reads::total             5263841                       # Number of read requests responded to by this memory
system.mem_ctrls.num_writes::.writebacks      5230253                       # Number of write requests responded to by this memory
system.mem_ctrls.num_writes::total            5230253                       # Number of write requests responded to by this memory
system.mem_ctrls.bw_read::.cpu.inst             53177                       # Total read bandwidth from this memory (bytes/s)
system.mem_ctrls.bw_read::.cpu.data         478434776                       # Total read bandwidth from this memory (bytes/s)
system.mem_ctrls.bw_read::total             478487953                       # Total read bandwidth from this memory (bytes/s)
system.mem_ctrls.bw_inst_read::.cpu.inst        53177                       # Instruction read bandwidth from this memory (bytes/s)
system.mem_ctrls.bw_inst_read::total            53177                       # Instruction read bandwidth from this memory (bytes/s)
system.mem_ctrls.bw_write::.writebacks      475434773                       # Write bandwidth from this memory (bytes/s)
system.mem_ctrls.bw_write::total            475434773                       # Write bandwidth from this memory (bytes/s)
system.mem_ctrls.bw_total::.writebacks      475434773                       # Total bandwidth to/from this memory (bytes/s)
system.mem_ctrls.bw_total::.cpu.inst            53177                       # Total bandwidth to/from this memory (bytes/s)
system.mem_ctrls.bw_total::.cpu.data        478434776                       # Total bandwidth to/from this memory (bytes/s)
system.mem_ctrls.bw_total::total            953922726                       # Total bandwidth to/from this memory (bytes/s)
system.mem_ctrls.avgPriority_.writebacks::samples   5230253.00                       # Average QoS priority value for accepted requests
system.mem_ctrls.avgPriority_.cpu.inst::samples       585.00                       # Average QoS priority value for accepted requests
system.mem_ctrls.avgPriority_.cpu.data::samples   5263256.00                       # Average QoS priority value for accepted requests
system.mem_ctrls.priorityMinLatency      0.000000018750                       # per QoS priority minimum request to response latency (s)
system.mem_ctrls.priorityMaxLatency      0.001042130500                       # per QoS priority maximum request to response latency (s)
system.mem_ctrls.numReadWriteTurnArounds       326873                       # Number of turnarounds from READ to WRITE
system.mem_ctrls.numWriteReadTurnArounds       326873                       # Number of turnarounds from WRITE to READ
system.mem_ctrls.numStayReadState            15611683                       # Number of times bus staying in READ state
system.mem_ctrls.numStayWriteState            4903533                       # Number of times bus staying in WRITE state
system.mem_ctrls.readReqs                     5263841                       # Number of read requests accepted
system.mem_ctrls.writeReqs                    5230253                       # Number of write requests accepted
system.mem_ctrls.readBursts                   5263841                       # Number of DRAM read bursts, including those serviced by the write queue
system.mem_ctrls.writeBursts                  5230253                       # Number of DRAM write bursts, including those merged in the write queue
system.mem_ctrls.servicedByWrQ                      0                       # Number of DRAM read bursts serviced by the write queue
system.mem_ctrls.mergedWrBursts                     0                       # Number of DRAM write bursts merged with an existing one
system.mem_ctrls.neitherReadNorWriteReqs            0                       # Number of requests that are neither read nor write
system.mem_ctrls.perBankRdBursts::0            329173                       # Per bank write bursts
system.mem_ctrls.perBankRdBursts::1            329087                       # Per bank write bursts
system.mem_ctrls.perBankRdBursts::2            329071                       # Per bank write bursts
system.mem_ctrls.perBankRdBursts::3            329044                       # Per bank write bursts
system.mem_ctrls.perBankRdBursts::4            329103                       # Per bank write bursts
system.mem_ctrls.perBankRdBursts::5            328944                       # Per bank write bursts
system.mem_ctrls.perBankRdBursts::6            328904                       # Per bank write bursts
system.mem_ctrls.perBankRdBursts::7            328869                       # Per bank write bursts
system.mem_ctrls.perBankRdBursts::8            328799                       # Per bank write bursts
system.mem_ctrls.perBankRdBursts::9            329038                       # Per bank write bursts
system.mem_ctrls.perBankRdBursts::10           329027                       # Per bank write bursts
system.mem_ctrls.perBankRdBursts::11           328959                       # Per bank write bursts
system.mem_ctrls.perBankRdBursts::12           328901                       # Per bank write bursts
system.mem_ctrls.perBankRdBursts::13           328864                       # Per bank write bursts
system.mem_ctrls.perBankRdBursts::14           328975                       # Per bank write bursts
system.mem_ctrls.perBankRdBursts::15           329083                       # Per bank write bursts
system.mem_ctrls.perBankWrBursts::0            327029                       # Per bank write bursts
system.mem_ctrls.perBankWrBursts::1            326981                       # Per bank write bursts
system.mem_ctrls.perBankWrBursts::2            326962                       # Per bank write bursts
system.mem_ctrls.perBankWrBursts::3            326964                       # Per bank write bursts
system.mem_ctrls.perBankWrBursts::4            326975                       # Per bank write bursts
system.mem_ctrls.perBankWrBursts::5            326867                       # Per bank write bursts
system.mem_ctrls.perBankWrBursts::6            326784                       # Per bank write bursts
system.mem_ctrls.perBankWrBursts::7            326784                       # Per bank write bursts
system.mem_ctrls.perBankWrBursts::8            326714                       # Per bank write bursts
system.mem_ctrls.perBankWrBursts::9            326918                       # Per bank write bursts
system.mem_ctrls.perBankWrBursts::10           326921                       # Per bank write bursts
system.mem_ctrls.perBankWrBursts::11           326902                       # Per bank write bursts
system.mem_ctrls.perBankWrBursts::12           326839                       # Per bank write bursts
system.mem_ctrls.perBankWrBursts::13           326792                       # Per bank write bursts
system.mem_ctrls.perBankWrBursts::14           326846                       # Per bank write bursts
system.mem_ctrls.perBankWrBursts::15           326956                       # Per bank write bursts
system.mem_ctrls.avgRdQLen                       1.00                       # Average read queue length when enqueuing
system.mem_ctrls.avgWrQLen                      25.45                       # Average write queue length when enqueuing
system.mem_ctrls.totQLat                  51037277000                       # Total ticks spent queuing
system.mem_ctrls.totBusLat                26319205000                       # Total ticks spent in databus transfers
system.mem_ctrls.totMemAccLat            149734295750                       # Total ticks spent from burst creation until serviced by the DRAM
system.mem_ctrls.avgQLat                      9695.82                       # Average queueing delay per DRAM burst
system.mem_ctrls.avgBusLat                    5000.00                       # Average bus latency per DRAM burst
system.mem_ctrls.avgMemAccLat                28445.82                       # Average memory access latency per DRAM burst
system.mem_ctrls.numRdRetry                         0                       # Number of times read queue was full causing retry
system.mem_ctrls.numWrRetry                         0                       # Number of times write queue was full causing retry
system.mem_ctrls.readRowHits                  4816471                       # Number of row buffer hits during reads
system.mem_ctrls.writeRowHits                 4875729                       # Number of row buffer hits during writes
system.mem_ctrls.readRowHitRate                 91.50                       # Row buffer hit rate for reads
system.mem_ctrls.writeRowHitRate                93.22                       # Row buffer hit rate for writes
system.mem_ctrls.readPktSize::0                     0                       # Read request sizes (log2)
system.mem_ctrls.readPktSize::1                     0                       # Read request sizes (log2)
system.mem_ctrls.readPktSize::2                     0                       # Read request sizes (log2)
system.mem_ctrls.readPktSize::3                     0                       # Read request sizes (log2)
system.mem_ctrls.readPktSize::4                     0                       # Read request sizes (log2)
system.mem_ctrls.readPktSize::5                     0                       # Read request sizes (log2)
system.mem_ctrls.readPktSize::6               5263841                       # Read request sizes (log2)
system.mem_ctrls.writePktSize::0                    0                       # Write request sizes (log2)
system.mem_ctrls.writePktSize::1                    0                       # Write request sizes (log2)
system.mem_ctrls.writePktSize::2                    0                       # Write request sizes (log2)
system.mem_ctrls.writePktSize::3                    0                       # Write request sizes (log2)
system.mem_ctrls.writePktSize::4                    0                       # Write request sizes (log2)
system.mem_ctrls.writePktSize::5                    0                       # Write request sizes (log2)
system.mem_ctrls.writePktSize::6              5230253                       # Write request sizes (log2)
system.mem_ctrls.rdQLenPdf::0                 5263596                       # What read queue length does an incoming req see
system.mem_ctrls.rdQLenPdf::1                     225                       # What read queue length does an incoming req see
system.mem_ctrls.rdQLenPdf::2                      20                       # What read queue length does an incoming req see
system.mem_ctrls.rdQLenPdf::3                       0                       # What read queue length does an incoming req see
system.mem_ctrls.rdQLenPdf::4                       0                       # What read queue length does an incoming req see
system.mem_ctrls.rdQLenPdf::5                       0                       # What read queue length does an incoming req see
system.mem_ctrls.rdQLenPdf::6                       0                       # What read queue length does an incoming req see
system.mem_ctrls.rdQLenPdf::7                       0                       # What read queue length does an incoming req see
system.mem_ctrls.rdQLenPdf::8                       0                       # What read queue length does an incoming req see
system.mem_ctrls.rdQLenPdf::9                       0                       # What read queue length does an incoming req see
system.mem_ctrls.rdQLenPdf::10                      0                       # What read queue length does an incoming req see
system.mem_ctrls.rdQLenPdf::11                      0                       # What read queue length does an incoming req see
system.mem_ctrls.rdQLenPdf::12                      0                       # What read queue length does an incoming req see
system.mem_ctrls.rdQLenPdf::13                      0                       # What read queue length does an incoming req see
system.mem_ctrls.rdQLenPdf::14                      0                       # What read queue length does an incoming req see
system.mem_ctrls.rdQLenPdf::15                      0                       # What read queue length does an incoming req see
system.mem_ctrls.rdQLenPdf::16                      0                       # What read queue length does an incoming req see
system.mem_ctrls.rdQLenPdf::17                      0                       # What read queue length does an incoming req see
system.mem_ctrls.rdQLenPdf::18                      0                       # What read queue length does an incoming req see
system.mem_ctrls.rdQLenPdf::19                      0                       # What read queue length does an incoming req see
system.mem_ctrls.rdQLenPdf::20                      0                       # What read queue length does an incoming req see
system.mem_ctrls.rdQLenPdf::21                      0                       # What read queue length does an incoming req see
system.mem_ctrls.rdQLenPdf::22                      0                       # What read queue length does an incoming req see
system.mem_ctrls.rdQLenPdf::23                      0                       # What read queue length does an incoming req see
system.mem_ctrls.rdQLenPdf::24                      0                       # What read queue length does an incoming req see
system.mem_ctrls.rdQLenPdf::25                      0                       # What read queue length does an incoming req see
system.mem_ctrls.rdQLenPdf::26                      0                       # What read queue length does an incoming req see
system.mem_ctrls.rdQLenPdf::27                      0                       # What read queue length does an incoming req see
system.mem_ctrls.rdQLenPdf::28                      0                       # What read queue length does an incoming req see
system.mem_ctrls.rdQLenPdf::29                      0                       # What read queue length does an incoming req see
system.mem_ctrls.rdQLenPdf::30                      0                       # What read queue length does an incoming req see
system.mem_ctrls.rdQLenPdf::31                      0                       # What read queue length does an incoming req see
system.mem_ctrls.wrQLenPdf::0                       1                       # What write queue length does an incoming req see
system.mem_ctrls.wrQLenPdf::1                       1                       # What write queue length does an incoming req see
system.mem_ctrls.wrQLenPdf::2                       1                       # What write queue length does an incoming req see
system.mem_ctrls.wrQLenPdf::3                       1                       # What write queue length does an incoming req see
system.mem_ctrls.wrQLenPdf::4                       1                       # What write queue length does an incoming req see
system.mem_ctrls.wrQLenPdf::5                       1                       # What write queue length does an incoming req see
system.mem_ctrls.wrQLenPdf::6                       1                       # What write queue length does an incoming req see
system.mem_ctrls.wrQLenPdf::7                       1                       # What write queue length does an incoming req see
system.mem_ctrls.wrQLenPdf::8                       1                       # What write queue length does an incoming req see
system.mem_ctrls.wrQLenPdf::9                       1                       # What write queue length does an incoming req see
system.mem_ctrls.wrQLenPdf::10                      1                       # What write queue length does an incoming req see
system.mem_ctrls.wrQLenPdf::11                      1                       # What write queue length does an incoming req see
system.mem_ctrls.wrQLenPdf::12                      1                       # What write queue length does an incoming req see
system.mem_ctrls.wrQLenPdf::13                      1                       # What write queue length does an incoming req see
system.mem_ctrls.wrQLenPdf::14                      1                       # What write queue length does an incoming req see
system.mem_ctrls.wrQLenPdf::15                     81                       # What write queue length does an incoming req see
system.mem_ctrls.wrQLenPdf::16                    134                       # What write queue length does an incoming req see
system.mem_ctrls.wrQLenPdf::17                 326862                       # What write queue length does an incoming req see
system.mem_ctrls.wrQLenPdf::18                 326869                       # What write queue length does an incoming req see
system.mem_ctrls.wrQLenPdf::19                 326874                       # What write queue length does an incoming req see
system.mem_ctrls.wrQLenPdf::20                 326875                       # What write queue length does an incoming req see
system.mem_ctrls.wrQLenPdf::21                 326880                       # What write queue length does an incoming req see
system.mem_ctrls.wrQLenPdf::22                 326880                       # What write queue length does an incoming req see
system.mem_ctrls.wrQLenPdf::23                 326915                       # What write queue length does an incoming req see
system.mem_ctrls.wrQLenPdf::24                 326874                       # What write queue length does an incoming req see
system.mem_ctrls.wrQLenPdf::25                 326875                       # What write queue length does an incoming req see
system.mem_ctrls.wrQLenPdf::26                 326873                       # What write queue length does an incoming req see
system.mem_ctrls.wrQLenPdf::27                 326873                       # What write queue length does an incoming req see
system.mem_ctrls.wrQLenPdf::28                 326875                       # What write queue length does an incoming req see
system.mem_ctrls.wrQLenPdf::29                 326877                       # What write queue length does an incoming req see
system.mem_ctrls.wrQLenPdf::30                 326874                       # What write queue length does an incoming req see
system.mem_ctrls.wrQLenPdf::31                 326874                       # What write queue length does an incoming req see
system.mem_ctrls.wrQLenPdf::32                 326873                       # What write queue length does an incoming req see
system.mem_ctrls.wrQLenPdf::33                      0                       # What write queue length does an incoming req see
system.mem_ctrls.wrQLenPdf::34                      0                       # What write queue length does an incoming req see
system.mem_ctrls.wrQLenPdf::35                      0                       # What write queue length does an incoming req see
system.mem_ctrls.wrQLenPdf::36                      0                       # What write queue length does an incoming req see
system.mem_ctrls.wrQLenPdf::37                      0                       # What write queue length does an incoming req see
system.mem_ctrls.wrQLenPdf::38                      0                       # What write queue length does an incoming req see
system.mem_ctrls.wrQLenPdf::39                      0                       # What write queue length does an incoming req see
system.mem_ctrls.wrQLenPdf::40                      0                       # What write queue length does an incoming req see
system.mem_ctrls.wrQLenPdf::41                      0                       # What write queue length does an incoming req see
system.mem_ctrls.wrQLenPdf::42                      0                       # What write queue length does an incoming req see
system.mem_ctrls.wrQLenPdf::43                      0                       # What write queue length does an incoming req see
system.mem_ctrls.wrQLenPdf::44                      0                       # What write queue length does an incoming req see
system.mem_ctrls.wrQLenPdf::45                      0                       # What write queue length does an incoming req see
system.mem_ctrls.wrQLenPdf::46                      0                       # What write queue length does an incoming req see
system.mem_ctrls.wrQLenPdf::47                      0                       # What write queue length does an incoming req see
system.mem_ctrls.wrQLenPdf::48                      0                       # What write queue length does an incoming req see
system.mem_ctrls.wrQLenPdf::49                      0                       # What write queue length does an incoming req see
system.mem_ctrls.wrQLenPdf::50                      0                       # What write queue length does an incoming req see
system.mem_ctrls.wrQLenPdf::51                      0                       # What write queue length does an incoming req see
system.mem_ctrls.wrQLenPdf::52                      0                       # What write queue length does an incoming req see
system.mem_ctrls.wrQLenPdf::53                      0                       # What write queue length does an incoming req see
system.mem_ctrls.wrQLenPdf::54                      0                       # What write queue length does an incoming req see
system.mem_ctrls.wrQLenPdf::55                      0                       # What write queue length does an incoming req see
system.mem_ctrls.wrQLenPdf::56                      0                       # What write queue length does an incoming req see
system.mem_ctrls.wrQLenPdf::57                      0                       # What write queue length does an incoming req see
system.mem_ctrls.wrQLenPdf::58                      0                       # What write queue length does an incoming req see
system.mem_ctrls.wrQLenPdf::59                      0                       # What write queue length does an incoming req see
system.mem_ctrls.wrQLenPdf::60                      0                       # What write queue length does an incoming req see
system.mem_ctrls.wrQLenPdf::61                      0                       # What write queue length does an incoming req see
system.mem_ctrls.wrQLenPdf::62                      0                       # What write queue length does an incoming req see
system.mem_ctrls.wrQLenPdf::63                      0                       # What write queue length does an incoming req see
system.mem_ctrls.bytesPerActivate::samples       801873                       # Bytes accessed per row activation
system.mem_ctrls.bytesPerActivate::mean    837.564093                       # Bytes accessed per row activation
system.mem_ctrls.bytesPerActivate::gmean   718.495034                       # Bytes accessed per row activation
system.mem_ctrls.bytesPerActivate::stdev   305.536748                       # Bytes accessed per row activation
system.mem_ctrls.bytesPerActivate::0-127        40511      5.05%      5.05% # Bytes accessed per row activation
system.mem_ctrls.bytesPerActivate::128-255        14547      1.81%      6.87% # Bytes accessed per row activation
system.mem_ctrls.bytesPerActivate::256-383        35343      4.41%     11.27% # Bytes accessed per row activation
system.mem_ctrls.bytesPerActivate::384-511        55442      6.91%     18.19% # Bytes accessed per row activation
system.mem_ctrls.bytesPerActivate::512-639        19709      2.46%     20.65% # Bytes accessed per row activation
system.mem_ctrls.bytesPerActivate::640-767        45365      5.66%     26.30% # Bytes accessed per row activation
system.mem_ctrls.bytesPerActivate::768-895        28170      3.51%     29.82% # Bytes accessed per row activation
system.mem_ctrls.bytesPerActivate::896-1023        51195      6.38%     36.20% # Bytes accessed per row activation
system.mem_ctrls.bytesPerActivate::1024-1151       511591     63.80%    100.00% # Bytes accessed per row activation
system.mem_ctrls.bytesPerActivate::total       801873                       # Bytes accessed per row activation
system.mem_ctrls.rdPerTurnAround::samples       326873                       # Reads before turning the bus around for writes
system.mem_ctrls.rdPerTurnAround::mean      16.103621                       # Reads before turning the bus around for writes
system.mem_ctrls.rdPerTurnAround::gmean     16.004708                       # Reads before turning the bus around for writes
system.mem_ctrls.rdPerTurnAround::stdev     49.444867                       # Reads before turning the bus around for writes
system.mem_ctrls.rdPerTurnAround::0-1023       326871    100.00%    100.00% # Reads before turning the bus around for writes
system.mem_ctrls.rdPerTurnAround::1024-2047            1      0.00%    100.00% # Reads before turning the bus around for writes
system.mem_ctrls.rdPerTurnAround::27648-28671            1      0.00%    100.00% # Reads before turning the bus around for writes
system.mem_ctrls.rdPerTurnAround::total        326873                       # Reads before turning the bus around for writes
system.mem_ctrls.wrPerTurnAround::samples       326873                       # Writes before turning the bus around for reads
system.mem_ctrls.wrPerTurnAround::mean      16.000814                       # Writes before turning the bus around for reads
[...]
system.cpu.icache.tags.warmup_cycle            108000                       # Cycle when the warmup percentage was hit.
system.cpu.icache.tags.occ_blocks::.cpu.inst   239.767870                       # Average occupied blocks per requestor
system.cpu.icache.tags.occ_percent::.cpu.inst     0.936593                       # Average percentage of cache occupancy
system.cpu.icache.tags.occ_percent::total     0.936593                       # Average percentage of cache occupancy
system.cpu.icache.tags.occ_task_id_blocks::1024          248                       # Occupied blocks per task id
system.cpu.icache.tags.age_task_id_blocks_1024::4          248                       # Occupied blocks per task id
system.cpu.icache.tags.occ_task_id_percent::1024     0.968750                       # Percentage of cache occupancy per task id
system.cpu.icache.tags.tag_accesses          63742798                       # Number of tag accesses
system.cpu.icache.tags.data_accesses         63742798                       # Number of data accesses
system.cpu.dtb.walker.pwrStateResidencyTicks::UNDEFINED 704063335000                       # Cumulative time (in ticks) in various power states
system.cpu.dtb.stage2_mmu.stage2_tlb.walker.pwrStateResidencyTicks::UNDEFINED 704063335000                       # Cumulative time (in ticks) in various power states
system.cpu.dcache.pwrStateResidencyTicks::UNDEFINED 704063335000                       # Cumulative time (in ticks) in various power states
system.cpu.dcache.demand_hits::.cpu.data     75858201                       # number of demand (read+write) hits
system.cpu.dcache.demand_hits::total         75858201                       # number of demand (read+write) hits
system.cpu.dcache.overall_hits::.cpu.data     75858234                       # number of overall hits
system.cpu.dcache.overall_hits::total        75858234                       # number of overall hits
system.cpu.dcache.demand_misses::.cpu.data     10523963                       # number of demand (read+write) misses
system.cpu.dcache.demand_misses::total       10523963                       # number of demand (read+write) misses
system.cpu.dcache.overall_misses::.cpu.data     10524001                       # number of overall misses
system.cpu.dcache.overall_misses::total      10524001                       # number of overall misses
system.cpu.dcache.demand_miss_latency::.cpu.data 1107160794999                       # number of demand (read+write) miss cycles
system.cpu.dcache.demand_miss_latency::total 1107160794999                       # number of demand (read+write) miss cycles
system.cpu.dcache.overall_miss_latency::.cpu.data 1107160794999                       # number of overall miss cycles
system.cpu.dcache.overall_miss_latency::total 1107160794999                       # number of overall miss cycles
system.cpu.dcache.demand_accesses::.cpu.data     86382164                       # number of demand (read+write) accesses
system.cpu.dcache.demand_accesses::total     86382164                       # number of demand (read+write) accesses
system.cpu.dcache.overall_accesses::.cpu.data     86382235                       # number of overall (read+write) accesses
system.cpu.dcache.overall_accesses::total     86382235                       # number of overall (read+write) accesses
system.cpu.dcache.demand_miss_rate::.cpu.data     0.121830                       # miss rate for demand accesses
system.cpu.dcache.demand_miss_rate::total     0.121830                       # miss rate for demand accesses
system.cpu.dcache.overall_miss_rate::.cpu.data     0.121831                       # miss rate for overall accesses
system.cpu.dcache.overall_miss_rate::total     0.121831                       # miss rate for overall accesses
system.cpu.dcache.demand_avg_miss_latency::.cpu.data 105203.790150                       # average overall miss latency
system.cpu.dcache.demand_avg_miss_latency::total 105203.790150                       # average overall miss latency
system.cpu.dcache.overall_avg_miss_latency::.cpu.data 105203.410281                       # average overall miss latency
system.cpu.dcache.overall_avg_miss_latency::total 105203.410281                       # average overall miss latency
system.cpu.dcache.blocked_cycles::no_mshrs          110                       # number of cycles access was blocked
system.cpu.dcache.blocked_cycles::no_targets            0                       # number of cycles access was blocked
system.cpu.dcache.blocked::no_mshrs                 4                       # number of cycles access was blocked
system.cpu.dcache.blocked::no_targets               0                       # number of cycles access was blocked
system.cpu.dcache.avg_blocked_cycles::no_mshrs    27.500000                       # average number of cycles each access was blocked
system.cpu.dcache.avg_blocked_cycles::no_targets          nan                       # average number of cycles each access was blocked
system.cpu.dcache.writebacks::.writebacks      5262622                       # number of writebacks
system.cpu.dcache.writebacks::total           5262622                       # number of writebacks
system.cpu.dcache.demand_mshr_hits::.cpu.data      5260559                       # number of demand (read+write) MSHR hits
system.cpu.dcache.demand_mshr_hits::total      5260559                       # number of demand (read+write) MSHR hits
system.cpu.dcache.overall_mshr_hits::.cpu.data      5260559                       # number of overall MSHR hits
system.cpu.dcache.overall_mshr_hits::total      5260559                       # number of overall MSHR hits
system.cpu.dcache.demand_mshr_misses::.cpu.data      5263404                       # number of demand (read+write) MSHR misses
system.cpu.dcache.demand_mshr_misses::total      5263404                       # number of demand (read+write) MSHR misses
system.cpu.dcache.overall_mshr_misses::.cpu.data      5263437                       # number of overall MSHR misses
system.cpu.dcache.overall_mshr_misses::total      5263437                       # number of overall MSHR misses
system.cpu.dcache.demand_mshr_miss_latency::.cpu.data 540579381000                       # number of demand (read+write) MSHR miss cycles
system.cpu.dcache.demand_mshr_miss_latency::total 540579381000                       # number of demand (read+write) MSHR miss cycles
system.cpu.dcache.overall_mshr_miss_latency::.cpu.data 540582921000                       # number of overall MSHR miss cycles
system.cpu.dcache.overall_mshr_miss_latency::total 540582921000                       # number of overall MSHR miss cycles
system.cpu.dcache.demand_mshr_miss_rate::.cpu.data     0.060932                       # mshr miss rate for demand accesses
system.cpu.dcache.demand_mshr_miss_rate::total     0.060932                       # mshr miss rate for demand accesses
system.cpu.dcache.overall_mshr_miss_rate::.cpu.data     0.060932                       # mshr miss rate for overall accesses
system.cpu.dcache.overall_mshr_miss_rate::total     0.060932                       # mshr miss rate for overall accesses
system.cpu.dcache.demand_avg_mshr_miss_latency::.cpu.data 102705.279891                       # average overall mshr miss latency
system.cpu.dcache.demand_avg_mshr_miss_latency::total 102705.279891                       # average overall mshr miss latency
system.cpu.dcache.overall_avg_mshr_miss_latency::.cpu.data 102705.308527                       # average overall mshr miss latency
system.cpu.dcache.overall_avg_mshr_miss_latency::total 102705.308527                       # average overall mshr miss latency
system.cpu.dcache.replacements                5262926                       # number of replacements
system.cpu.dcache.ReadReq_hits::.cpu.data      2043522                       # number of ReadReq hits
system.cpu.dcache.ReadReq_hits::total         2043522                       # number of ReadReq hits
system.cpu.dcache.ReadReq_misses::.cpu.data          376                       # number of ReadReq misses
system.cpu.dcache.ReadReq_misses::total           376                       # number of ReadReq misses
system.cpu.dcache.ReadReq_miss_latency::.cpu.data     31646000                       # number of ReadReq miss cycles
system.cpu.dcache.ReadReq_miss_latency::total     31646000                       # number of ReadReq miss cycles
system.cpu.dcache.ReadReq_accesses::.cpu.data      2043898                       # number of ReadReq accesses(hits+misses)
system.cpu.dcache.ReadReq_accesses::total      2043898                       # number of ReadReq accesses(hits+misses)
system.cpu.dcache.ReadReq_miss_rate::.cpu.data     0.000184                       # miss rate for ReadReq accesses
system.cpu.dcache.ReadReq_miss_rate::total     0.000184                       # miss rate for ReadReq accesses
system.cpu.dcache.ReadReq_avg_miss_latency::.cpu.data 84164.893617                       # average ReadReq miss latency
system.cpu.dcache.ReadReq_avg_miss_latency::total 84164.893617                       # average ReadReq miss latency
system.cpu.dcache.ReadReq_mshr_hits::.cpu.data           22                       # number of ReadReq MSHR hits
system.cpu.dcache.ReadReq_mshr_hits::total           22                       # number of ReadReq MSHR hits
system.cpu.dcache.ReadReq_mshr_misses::.cpu.data          354                       # number of ReadReq MSHR misses
system.cpu.dcache.ReadReq_mshr_misses::total          354                       # number of ReadReq MSHR misses
system.cpu.dcache.ReadReq_mshr_miss_latency::.cpu.data     28720000                       # number of ReadReq MSHR miss cycles
system.cpu.dcache.ReadReq_mshr_miss_latency::total     28720000                       # number of ReadReq MSHR miss cycles
system.cpu.dcache.ReadReq_mshr_miss_rate::.cpu.data     0.000173                       # mshr miss rate for ReadReq accesses
system.cpu.dcache.ReadReq_mshr_miss_rate::total     0.000173                       # mshr miss rate for ReadReq accesses
system.cpu.dcache.ReadReq_avg_mshr_miss_latency::.cpu.data 81129.943503                       # average ReadReq mshr miss latency
system.cpu.dcache.ReadReq_avg_mshr_miss_latency::total 81129.943503                       # average ReadReq mshr miss latency
system.cpu.dcache.WriteReq_hits::.cpu.data     73814679                       # number of WriteReq hits
system.cpu.dcache.WriteReq_hits::total       73814679                       # number of WriteReq hits
system.cpu.dcache.WriteReq_misses::.cpu.data     10523587                       # number of WriteReq misses
system.cpu.dcache.WriteReq_misses::total     10523587                       # number of WriteReq misses
system.cpu.dcache.WriteReq_miss_latency::.cpu.data 1107129148999                       # number of WriteReq miss cycles
system.cpu.dcache.WriteReq_miss_latency::total 1107129148999                       # number of WriteReq miss cycles
system.cpu.dcache.WriteReq_accesses::.cpu.data     84338266                       # number of WriteReq accesses(hits+misses)
system.cpu.dcache.WriteReq_accesses::total     84338266                       # number of WriteReq accesses(hits+misses)
system.cpu.dcache.WriteReq_miss_rate::.cpu.data     0.124778                       # miss rate for WriteReq accesses
system.cpu.dcache.WriteReq_miss_rate::total     0.124778                       # miss rate for WriteReq accesses
system.cpu.dcache.WriteReq_avg_miss_latency::.cpu.data 105204.541854                       # average WriteReq miss latency
system.cpu.dcache.WriteReq_avg_miss_latency::total 105204.541854                       # average WriteReq miss latency
system.cpu.dcache.WriteReq_mshr_hits::.cpu.data      5260537                       # number of WriteReq MSHR hits
system.cpu.dcache.WriteReq_mshr_hits::total      5260537                       # number of WriteReq MSHR hits
system.cpu.dcache.WriteReq_mshr_misses::.cpu.data      5263050                       # number of WriteReq MSHR misses
system.cpu.dcache.WriteReq_mshr_misses::total      5263050                       # number of WriteReq MSHR misses
system.cpu.dcache.WriteReq_mshr_miss_latency::.cpu.data 540550661000                       # number of WriteReq MSHR miss cycles
system.cpu.dcache.WriteReq_mshr_miss_latency::total 540550661000                       # number of WriteReq MSHR miss cycles
system.cpu.dcache.WriteReq_mshr_miss_rate::.cpu.data     0.062404                       # mshr miss rate for WriteReq accesses
system.cpu.dcache.WriteReq_mshr_miss_rate::total     0.062404                       # mshr miss rate for WriteReq accesses
system.cpu.dcache.WriteReq_avg_mshr_miss_latency::.cpu.data 102706.731078                       # average WriteReq mshr miss latency
system.cpu.dcache.WriteReq_avg_mshr_miss_latency::total 102706.731078                       # average WriteReq mshr miss latency
system.cpu.dcache.SoftPFReq_hits::.cpu.data           33                       # number of SoftPFReq hits
system.cpu.dcache.SoftPFReq_hits::total            33                       # number of SoftPFReq hits
system.cpu.dcache.SoftPFReq_misses::.cpu.data           38                       # number of SoftPFReq misses
system.cpu.dcache.SoftPFReq_misses::total           38                       # number of SoftPFReq misses
system.cpu.dcache.SoftPFReq_accesses::.cpu.data           71                       # number of SoftPFReq accesses(hits+misses)
system.cpu.dcache.SoftPFReq_accesses::total           71                       # number of SoftPFReq accesses(hits+misses)
system.cpu.dcache.SoftPFReq_miss_rate::.cpu.data     0.535211                       # miss rate for SoftPFReq accesses
system.cpu.dcache.SoftPFReq_miss_rate::total     0.535211                       # miss rate for SoftPFReq accesses
system.cpu.dcache.SoftPFReq_mshr_misses::.cpu.data           33                       # number of SoftPFReq MSHR misses
system.cpu.dcache.SoftPFReq_mshr_misses::total           33                       # number of SoftPFReq MSHR misses
system.cpu.dcache.SoftPFReq_mshr_miss_latency::.cpu.data      3540000                       # number of SoftPFReq MSHR miss cycles
system.cpu.dcache.SoftPFReq_mshr_miss_latency::total      3540000                       # number of SoftPFReq MSHR miss cycles
system.cpu.dcache.SoftPFReq_mshr_miss_rate::.cpu.data     0.464789                       # mshr miss rate for SoftPFReq accesses
system.cpu.dcache.SoftPFReq_mshr_miss_rate::total     0.464789                       # mshr miss rate for SoftPFReq accesses
system.cpu.dcache.SoftPFReq_avg_mshr_miss_latency::.cpu.data 107272.727273                       # average SoftPFReq mshr miss latency
system.cpu.dcache.SoftPFReq_avg_mshr_miss_latency::total 107272.727273                       # average SoftPFReq mshr miss latency
system.cpu.dcache.LoadLockedReq_hits::.cpu.data           33                       # number of LoadLockedReq hits
system.cpu.dcache.LoadLockedReq_hits::total           33                       # number of LoadLockedReq hits
system.cpu.dcache.LoadLockedReq_misses::.cpu.data            1                       # number of LoadLockedReq misses
system.cpu.dcache.LoadLockedReq_misses::total            1                       # number of LoadLockedReq misses
system.cpu.dcache.LoadLockedReq_miss_latency::.cpu.data       123000                       # number of LoadLockedReq miss cycles
system.cpu.dcache.LoadLockedReq_miss_latency::total       123000                       # number of LoadLockedReq miss cycles
system.cpu.dcache.LoadLockedReq_accesses::.cpu.data           34                       # number of LoadLockedReq accesses(hits+misses)
system.cpu.dcache.LoadLockedReq_accesses::total           34                       # number of LoadLockedReq accesses(hits+misses)
system.cpu.dcache.LoadLockedReq_miss_rate::.cpu.data     0.029412                       # miss rate for LoadLockedReq accesses
system.cpu.dcache.LoadLockedReq_miss_rate::total     0.029412                       # miss rate for LoadLockedReq accesses
system.cpu.dcache.LoadLockedReq_avg_miss_latency::.cpu.data       123000                       # average LoadLockedReq miss latency
system.cpu.dcache.LoadLockedReq_avg_miss_latency::total       123000                       # average LoadLockedReq miss latency
system.cpu.dcache.LoadLockedReq_mshr_misses::.cpu.data            1                       # number of LoadLockedReq MSHR misses
system.cpu.dcache.LoadLockedReq_mshr_misses::total            1                       # number of LoadLockedReq MSHR misses
system.cpu.dcache.LoadLockedReq_mshr_miss_latency::.cpu.data       121000                       # number of LoadLockedReq MSHR miss cycles
system.cpu.dcache.LoadLockedReq_mshr_miss_latency::total       121000                       # number of LoadLockedReq MSHR miss cycles
system.cpu.dcache.LoadLockedReq_mshr_miss_rate::.cpu.data     0.029412                       # mshr miss rate for LoadLockedReq accesses
system.cpu.dcache.LoadLockedReq_mshr_miss_rate::total     0.029412                       # mshr miss rate for LoadLockedReq accesses
system.cpu.dcache.LoadLockedReq_avg_mshr_miss_latency::.cpu.data       121000                       # average LoadLockedReq mshr miss latency
system.cpu.dcache.LoadLockedReq_avg_mshr_miss_latency::total       121000                       # average LoadLockedReq mshr miss latency
system.cpu.dcache.StoreCondReq_hits::.cpu.data           34                       # number of StoreCondReq hits
system.cpu.dcache.StoreCondReq_hits::total           34                       # number of StoreCondReq hits
system.cpu.dcache.StoreCondReq_accesses::.cpu.data           34                       # number of StoreCondReq accesses(hits+misses)
system.cpu.dcache.StoreCondReq_accesses::total           34                       # number of StoreCondReq accesses(hits+misses)
system.cpu.dcache.tags.pwrStateResidencyTicks::UNDEFINED 704063335000                       # Cumulative time (in ticks) in various power states
system.cpu.dcache.tags.tagsinuse           511.908282                       # Cycle average of tags in use
system.cpu.dcache.tags.total_refs            81121739                       # Total number of references to valid blocks.
system.cpu.dcache.tags.sampled_refs           5263438                       # Sample count of references to valid blocks.
system.cpu.dcache.tags.avg_refs             15.412310                       # Average number of references to valid blocks.
system.cpu.dcache.tags.warmup_cycle            223000                       # Cycle when the warmup percentage was hit.
system.cpu.dcache.tags.occ_blocks::.cpu.data   511.908282                       # Average occupied blocks per requestor
system.cpu.dcache.tags.occ_percent::.cpu.data     0.999821                       # Average percentage of cache occupancy
system.cpu.dcache.tags.occ_percent::total     0.999821                       # Average percentage of cache occupancy
system.cpu.dcache.tags.occ_task_id_blocks::1024          512                       # Occupied blocks per task id
system.cpu.dcache.tags.age_task_id_blocks_1024::0           76                       # Occupied blocks per task id
system.cpu.dcache.tags.age_task_id_blocks_1024::1          436                       # Occupied blocks per task id
system.cpu.dcache.tags.occ_task_id_percent::1024            1                       # Percentage of cache occupancy per task id
system.cpu.dcache.tags.tag_accesses         178028044                       # Number of tag accesses
system.cpu.dcache.tags.data_accesses        178028044                       # Number of data accesses
system.cpu.itb.walker.pwrStateResidencyTicks::UNDEFINED 704063335000                       # Cumulative time (in ticks) in various power states
system.cpu.itb.stage2_mmu.stage2_tlb.walker.pwrStateResidencyTicks::UNDEFINED 704063335000                       # Cumulative time (in ticks) in various power states

---------- End Simulation Statistics   ----------
