
---------- Begin Simulation Statistics ----------
final_tick                               199037341000                       # Number of ticks from beginning of simulation (restored from checkpoints and never reset)
host_inst_rate                                 208556                       # Simulator instruction rate (inst/s)
host_mem_usage                                 723752                       # Number of bytes of host memory used
host_op_rate                                   208564                       # Simulator op (including micro ops) rate (op/s)
host_seconds                                   479.49                       # Real time elapsed on the host
host_tick_rate                              415105020                       # Simulator tick rate (ticks/s)
sim_freq                                 1000000000000                       # Frequency of simulated ticks
sim_insts                                   100000000                       # Number of instructions simulated
sim_ops                                     100003445                       # Number of ops (including micro ops) simulated
sim_seconds                                  0.199037                       # Number of seconds simulated
sim_ticks                                199037341000                       # Number of ticks simulated
system.cpu.branchPred.BTBCorrect                    0                       # Number of correct BTB predictions (this stat may not work properly.
system.cpu.branchPred.BTBHitPct             99.505420                       # BTB Hit Percentage
system.cpu.branchPred.BTBHits                  596735                       # Number of BTB hits
system.cpu.branchPred.BTBLookups               599701                       # Number of BTB lookups
system.cpu.branchPred.RASInCorrect                  7                       # Number of incorrect RAS predictions.
system.cpu.branchPred.condIncorrect               843                       # Number of conditional branches incorrect
system.cpu.branchPred.condPredicted            599918                       # Number of conditional branches predicted
system.cpu.branchPred.indirectHits                158                       # Number of indirect target hits.
system.cpu.branchPred.indirectLookups             365                       # Number of indirect predictor lookups.
system.cpu.branchPred.indirectMisses              207                       # Number of indirect misses.
system.cpu.branchPred.lookups                  602005                       # Number of BP lookups
system.cpu.branchPred.usedRAS                     564                       # Number of times the RAS was used to get a target.
system.cpu.branchPredindirectMispredicted          114                       # Number of mispredicted indirect branches.
system.cpu.committedInsts                   100000000                       # Number of instructions committed
system.cpu.committedOps                     100003445                       # Number of ops (including micro ops) committed
system.cpu.cpi                               1.990373                       # CPI: cycles per instruction
system.cpu.discardedOps                          2579                       # Number of ops (including micro ops) which were discarded before commit
system.cpu.dtb.accesses                             0                       # DTB accesses
system.cpu.dtb.align_faults                         0                       # Number of TLB faults due to alignment restrictions
system.cpu.dtb.domain_faults                        0                       # Number of TLB faults due to domain restrictions
system.cpu.dtb.flush_entries                        0                       # Number of entries that have been flushed from TLB
system.cpu.dtb.flush_tlb                            0                       # Number of times complete TLB was flushed
system.cpu.dtb.flush_tlb_asid                       0                       # Number of times TLB was flushed by ASID
system.cpu.dtb.flush_tlb_mva                        0                       # Number of times TLB was flushed by MVA
system.cpu.dtb.flush_tlb_mva_asid                   0                       # Number of times TLB was flushed by MVA & ASID
system.cpu.dtb.hits                                 0                       # DTB hits
system.cpu.dtb.inst_accesses                        0                       # ITB inst accesses
system.cpu.dtb.inst_hits                            0                       # ITB inst hits
system.cpu.dtb.inst_misses                          0                       # ITB inst misses
system.cpu.dtb.misses                               0                       # DTB misses
system.cpu.dtb.perms_faults                         0                       # Number of TLB faults due to permissions restrictions
system.cpu.dtb.prefetch_faults                      0                       # Number of TLB faults due to prefetch
system.cpu.dtb.read_accesses                        0                       # DTB read accesses
system.cpu.dtb.read_hits                            0                       # DTB read hits
system.cpu.dtb.read_misses                          0                       # DTB read misses
system.cpu.dtb.stage2_mmu.stage2_tlb.accesses            0                       # DTB accesses
system.cpu.dtb.stage2_mmu.stage2_tlb.align_faults            0                       # Number of TLB faults due to alignment restrictions
system.cpu.dtb.stage2_mmu.stage2_tlb.domain_faults            0                       # Number of TLB faults due to domain restrictions
system.cpu.dtb.stage2_mmu.stage2_tlb.flush_entries            0                       # Number of entries that have been flushed from TLB
system.cpu.dtb.stage2_mmu.stage2_tlb.flush_tlb            0                       # Number of times complete TLB was flushed
system.cpu.dtb.stage2_mmu.stage2_tlb.flush_tlb_asid            0                       # Number of times TLB was flushed by ASID
system.cpu.dtb.stage2_mmu.stage2_tlb.flush_tlb_mva            0                       # Number of times TLB was flushed by MVA
system.cpu.dtb.stage2_mmu.stage2_tlb.flush_tlb_mva_asid            0                       # Number of times TLB was flushed by MVA & ASID
system.cpu.dtb.stage2_mmu.stage2_tlb.hits            0                       # DTB hits
system.cpu.dtb.stage2_mmu.stage2_tlb.inst_accesses            0                       # ITB inst accesses
system.cpu.dtb.stage2_mmu.stage2_tlb.inst_hits            0                       # ITB inst hits
system.cpu.dtb.stage2_mmu.stage2_tlb.inst_misses            0                       # ITB inst misses
system.cpu.dtb.stage2_mmu.stage2_tlb.misses            0                       # DTB misses
system.cpu.dtb.stage2_mmu.stage2_tlb.perms_faults            0                       # Number of TLB faults due to permissions restrictions
system.cpu.dtb.stage2_mmu.stage2_tlb.prefetch_faults            0                       # Number of TLB faults due to prefetch
system.cpu.dtb.stage2_mmu.stage2_tlb.read_accesses            0                       # DTB read accesses
system.cpu.dtb.stage2_mmu.stage2_tlb.read_hits            0                       # DTB read hits
system.cpu.dtb.stage2_mmu.stage2_tlb.read_misses            0                       # DTB read misses
system.cpu.dtb.stage2_mmu.stage2_tlb.walker.walkRequestOrigin_Requested::Data            0                       # Table walker requests started/completed, data/inst
system.cpu.dtb.stage2_mmu.stage2_tlb.walker.walkRequestOrigin_Requested::Inst            0                       # Table walker requests started/completed, data/inst
system.cpu.dtb.stage2_mmu.stage2_tlb.walker.walkRequestOrigin_Requested::total            0                       # Table walker requests started/completed, data/inst
system.cpu.dtb.stage2_mmu.stage2_tlb.walker.walkRequestOrigin_Completed::Data            0                       # Table walker requests started/completed, data/inst
system.cpu.dtb.stage2_mmu.stage2_tlb.walker.walkRequestOrigin_Completed::Inst            0                       # Table walker requests started/completed, data/inst
system.cpu.dtb.stage2_mmu.stage2_tlb.walker.walkRequestOrigin_Completed::total            0                       # Table walker requests started/completed, data/inst
system.cpu.dtb.stage2_mmu.stage2_tlb.walker.walkRequestOrigin::total            0                       # Table walker requests started/completed, data/inst
system.cpu.dtb.stage2_mmu.stage2_tlb.walker.walks            0                       # Table walker walks requested
system.cpu.dtb.stage2_mmu.stage2_tlb.write_accesses            0                       # DTB write accesses
system.cpu.dtb.stage2_mmu.stage2_tlb.write_hits            0                       # DTB write hits
system.cpu.dtb.stage2_mmu.stage2_tlb.write_misses            0                       # DTB write misses
system.cpu.dtb.walker.walkRequestOrigin_Requested::Data            0                       # Table walker requests started/completed, data/inst
system.cpu.dtb.walker.walkRequestOrigin_Requested::Inst            0                       # Table walker requests started/completed, data/inst
system.cpu.dtb.walker.walkRequestOrigin_Requested::total            0                       # Table walker requests started/completed, data/inst
system.cpu.dtb.walker.walkRequestOrigin_Completed::Data            0                       # Table walker requests started/completed, data/inst
system.cpu.dtb.walker.walkRequestOrigin_Completed::Inst            0                       # Table walker requests started/completed, data/inst
system.cpu.dtb.walker.walkRequestOrigin_Completed::total            0                       # Table walker requests started/completed, data/inst
system.cpu.dtb.walker.walkRequestOrigin::total            0                       # Table walker requests started/completed, data/inst
system.cpu.dtb.walker.walks                         0                       # Table walker walks requested
system.cpu.dtb.write_accesses                       0                       # DTB write accesses
system.cpu.dtb.write_hits                           0                       # DTB write hits
system.cpu.dtb.write_misses                         0                       # DTB write misses
system.cpu.fetch2.amo_instructions                  0                       # Number of memory atomic instructions successfully decoded
system.cpu.fetch2.fp_instructions                   0                       # Number of floating point instructions successfully decoded
system.cpu.fetch2.int_instructions           49411953                       # Number of integer instructions successfully decoded
system.cpu.fetch2.load_instructions          36901167                       # Number of memory load instructions successfully decoded
system.cpu.fetch2.store_instructions         13094367                       # Number of memory store instructions successfully decoded
system.cpu.fetch2.vec_instructions                  0                       # Number of SIMD instructions successfully decoded
system.cpu.idleCycles                        84445772                       # Total number of cycles that the object has spent stopped
system.cpu.ipc                               0.502418                       # IPC: instructions per cycle
system.cpu.itb.accesses                             0                       # DTB accesses
system.cpu.itb.align_faults                         0                       # Number of TLB faults due to alignment restrictions
system.cpu.itb.domain_faults                        0                       # Number of TLB faults due to domain restrictions
system.cpu.itb.flush_entries                        0                       # Number of entries that have been flushed from TLB
system.cpu.itb.flush_tlb                            0                       # Number of times complete TLB was flushed
system.cpu.itb.flush_tlb_asid                       0                       # Number of times TLB was flushed by ASID
system.cpu.itb.flush_tlb_mva                        0                       # Number of times TLB was flushed by MVA
system.cpu.itb.flush_tlb_mva_asid                   0                       # Number of times TLB was flushed by MVA & ASID
system.cpu.itb.hits                                 0                       # DTB hits
system.cpu.itb.inst_accesses                        0                       # ITB inst accesses
system.cpu.itb.inst_hits                            0                       # ITB inst hits
system.cpu.itb.inst_misses                          0                       # ITB inst misses
system.cpu.itb.misses                               0                       # DTB misses
system.cpu.itb.perms_faults                         0                       # Number of TLB faults due to permissions restrictions
system.cpu.itb.prefetch_faults                      0                       # Number of TLB faults due to prefetch
system.cpu.itb.read_accesses                        0                       # DTB read accesses
system.cpu.itb.read_hits                            0                       # DTB read hits
system.cpu.itb.read_misses                          0                       # DTB read misses
system.cpu.itb.stage2_mmu.stage2_tlb.accesses            0                       # DTB accesses
system.cpu.itb.stage2_mmu.stage2_tlb.align_faults            0                       # Number of TLB faults due to alignment restrictions
system.cpu.itb.stage2_mmu.stage2_tlb.domain_faults            0                       # Number of TLB faults due to domain restrictions
system.cpu.itb.stage2_mmu.stage2_tlb.flush_entries            0                       # Number of entries that have been flushed from TLB
system.cpu.itb.stage2_mmu.stage2_tlb.flush_tlb            0                       # Number of times complete TLB was flushed
system.cpu.itb.stage2_mmu.stage2_tlb.flush_tlb_asid            0                       # Number of times TLB was flushed by ASID
system.cpu.itb.stage2_mmu.stage2_tlb.flush_tlb_mva            0                       # Number of times TLB was flushed by MVA
system.cpu.itb.stage2_mmu.stage2_tlb.flush_tlb_mva_asid            0                       # Number of times TLB was flushed by MVA & ASID
system.cpu.itb.stage2_mmu.stage2_tlb.hits            0                       # DTB hits
system.cpu.itb.stage2_mmu.stage2_tlb.inst_accesses            0                       # ITB inst accesses
system.cpu.itb.stage2_mmu.stage2_tlb.inst_hits            0                       # ITB inst hits
system.cpu.itb.stage2_mmu.stage2_tlb.inst_misses            0                       # ITB inst misses
system.cpu.itb.stage2_mmu.stage2_tlb.misses            0                       # DTB misses
system.cpu.itb.stage2_mmu.stage2_tlb.perms_faults            0                       # Number of TLB faults due to permissions restrictions
system.cpu.itb.stage2_mmu.stage2_tlb.prefetch_faults            0                       # Number of TLB faults due to prefetch
system.cpu.itb.stage2_mmu.stage2_tlb.read_accesses            0                       # DTB read accesses
system.cpu.itb.stage2_mmu.stage2_tlb.read_hits            0                       # DTB read hits
system.cpu.itb.stage2_mmu.stage2_tlb.read_misses            0                       # DTB read misses
system.cpu.itb.stage2_mmu.stage2_tlb.walker.walkRequestOrigin_Requested::Data            0                       # Table walker requests started/completed, data/inst
system.cpu.itb.stage2_mmu.stage2_tlb.walker.walkRequestOrigin_Requested::Inst            0                       # Table walker requests started/completed, data/inst
system.cpu.itb.stage2_mmu.stage2_tlb.walker.walkRequestOrigin_Requested::total            0                       # Table walker requests started/completed, data/inst
system.cpu.itb.stage2_mmu.stage2_tlb.walker.walkRequestOrigin_Completed::Data            0                       # Table walker requests started/completed, data/inst
system.cpu.itb.stage2_mmu.stage2_tlb.walker.walkRequestOrigin_Completed::Inst            0                       # Table walker requests started/completed, data/inst
system.cpu.itb.stage2_mmu.stage2_tlb.walker.walkRequestOrigin_Completed::total            0                       # Table walker requests started/completed, data/inst
system.cpu.itb.stage2_mmu.stage2_tlb.walker.walkRequestOrigin::total            0                       # Table walker requests started/completed, data/inst
system.cpu.itb.stage2_mmu.stage2_tlb.walker.walks            0                       # Table walker walks requested
system.cpu.itb.stage2_mmu.stage2_tlb.write_accesses            0                       # DTB write accesses
system.cpu.itb.stage2_mmu.stage2_tlb.write_hits            0                       # DTB write hits
system.cpu.itb.stage2_mmu.stage2_tlb.write_misses            0                       # DTB write misses
system.cpu.itb.walker.walkRequestOrigin_Requested::Data            0                       # Table walker requests started/completed, data/inst
system.cpu.itb.walker.walkRequestOrigin_Requested::Inst            0                       # Table walker requests started/completed, data/inst
system.cpu.itb.walker.walkRequestOrigin_Requested::total            0                       # Table walker requests started/completed, data/inst
system.cpu.itb.walker.walkRequestOrigin_Completed::Data            0                       # Table walker requests started/completed, data/inst
system.cpu.itb.walker.walkRequestOrigin_Completed::Inst            0                       # Table walker requests started/completed, data/inst
system.cpu.itb.walker.walkRequestOrigin_Completed::total            0                       # Table walker requests started/completed, data/inst
system.cpu.itb.walker.walkRequestOrigin::total            0                       # Table walker requests started/completed, data/inst
system.cpu.itb.walker.walks                         0                       # Table walker walks requested
system.cpu.itb.write_accesses                       0                       # DTB write accesses
system.cpu.itb.write_hits                           0                       # DTB write hits
system.cpu.itb.write_misses                         0                       # DTB write misses
system.cpu.numCycles                        199037341                       # number of cpu cycles simulated
system.cpu.numFetchSuspends                         0                       # Number of times Execute suspended instruction fetching
system.cpu.numWorkItemsCompleted                    0                       # number of work items this cpu completed
system.cpu.numWorkItemsStarted                      0                       # number of work items this cpu started
system.cpu.op_class_0::No_OpClass                   0      0.00%      0.00% # Class of committed instruction
system.cpu.op_class_0::IntAlu                50006868     50.01%     50.01% # Class of committed instruction
system.cpu.op_class_0::IntMult                     85      0.00%     50.01% # Class of committed instruction
system.cpu.op_class_0::IntDiv                       0      0.00%     50.01% # Class of committed instruction
system.cpu.op_class_0::FloatAdd                     0      0.00%     50.01% # Class of committed instruction
system.cpu.op_class_0::FloatCmp                     0      0.00%     50.01% # Class of committed instruction
system.cpu.op_class_0::FloatCvt                     0      0.00%     50.01% # Class of committed instruction
system.cpu.op_class_0::FloatMult                    0      0.00%     50.01% # Class of committed instruction
system.cpu.op_class_0::FloatMultAcc                 0      0.00%     50.01% # Class of committed instruction
system.cpu.op_class_0::FloatDiv                     0      0.00%     50.01% # Class of committed instruction
system.cpu.op_class_0::FloatMisc                    0      0.00%     50.01% # Class of committed instruction
system.cpu.op_class_0::FloatSqrt                    0      0.00%     50.01% # Class of committed instruction
system.cpu.op_class_0::SimdAdd                      0      0.00%     50.01% # Class of committed instruction
system.cpu.op_class_0::SimdAddAcc                   0      0.00%     50.01% # Class of committed instruction
system.cpu.op_class_0::SimdAlu                      0      0.00%     50.01% # Class of committed instruction
system.cpu.op_class_0::SimdCmp                      0      0.00%     50.01% # Class of committed instruction
system.cpu.op_class_0::SimdCvt                      0      0.00%     50.01% # Class of committed instruction
system.cpu.op_class_0::SimdMisc                     0      0.00%     50.01% # Class of committed instruction
system.cpu.op_class_0::SimdMult                     0      0.00%     50.01% # Class of committed instruction
system.cpu.op_class_0::SimdMultAcc                  0      0.00%     50.01% # Class of committed instruction
system.cpu.op_class_0::SimdShift                    0      0.00%     50.01% # Class of committed instruction
system.cpu.op_class_0::SimdShiftAcc                 0      0.00%     50.01% # Class of committed instruction
system.cpu.op_class_0::SimdDiv                      0      0.00%     50.01% # Class of committed instruction
system.cpu.op_class_0::SimdSqrt                     0      0.00%     50.01% # Class of committed instruction
system.cpu.op_class_0::SimdFloatAdd                 0      0.00%     50.01% # Class of committed instruction
system.cpu.op_class_0::SimdFloatAlu                 0      0.00%     50.01% # Class of committed instruction
system.cpu.op_class_0::SimdFloatCmp                 2      0.00%     50.01% # Class of committed instruction
system.cpu.op_class_0::SimdFloatCvt                 0      0.00%     50.01% # Class of committed instruction
system.cpu.op_class_0::SimdFloatDiv                 0      0.00%     50.01% # Class of committed instruction
system.cpu.op_class_0::SimdFloatMisc                5      0.00%     50.01% # Class of committed instruction
system.cpu.op_class_0::SimdFloatMult                0      0.00%     50.01% # Class of committed instruction
system.cpu.op_class_0::SimdFloatMultAcc             0      0.00%     50.01% # Class of committed instruction
system.cpu.op_class_0::SimdFloatSqrt                0      0.00%     50.01% # Class of committed instruction
system.cpu.op_class_0::SimdReduceAdd                0      0.00%     50.01% # Class of committed instruction
system.cpu.op_class_0::SimdReduceAlu                0      0.00%     50.01% # Class of committed instruction
system.cpu.op_class_0::SimdReduceCmp                0      0.00%     50.01% # Class of committed instruction
system.cpu.op_class_0::SimdFloatReduceAdd            0      0.00%     50.01% # Class of committed instruction
system.cpu.op_class_0::SimdFloatReduceCmp            0      0.00%     50.01% # Class of committed instruction
system.cpu.op_class_0::SimdAes                      0      0.00%     50.01% # Class of committed instruction
system.cpu.op_class_0::SimdAesMix                   0      0.00%     50.01% # Class of committed instruction
system.cpu.op_class_0::SimdSha1Hash                 0      0.00%     50.01% # Class of committed instruction
system.cpu.op_class_0::SimdSha1Hash2                0      0.00%     50.01% # Class of committed instruction
system.cpu.op_class_0::SimdSha256Hash               0      0.00%     50.01% # Class of committed instruction
system.cpu.op_class_0::SimdSha256Hash2              0      0.00%     50.01% # Class of committed instruction
system.cpu.op_class_0::SimdShaSigma2                0      0.00%     50.01% # Class of committed instruction
system.cpu.op_class_0::SimdShaSigma3                0      0.00%     50.01% # Class of committed instruction
system.cpu.op_class_0::SimdPredAlu                  0      0.00%     50.01% # Class of committed instruction
system.cpu.op_class_0::MemRead               36900855     36.90%     86.90% # Class of committed instruction
system.cpu.op_class_0::MemWrite              13095630     13.10%    100.00% # Class of committed instruction
system.cpu.op_class_0::FloatMemRead                 0      0.00%    100.00% # Class of committed instruction
system.cpu.op_class_0::FloatMemWrite                0      0.00%    100.00% # Class of committed instruction
system.cpu.op_class_0::IprAccess                    0      0.00%    100.00% # Class of committed instruction
system.cpu.op_class_0::InstPrefetch                 0      0.00%    100.00% # Class of committed instruction
system.cpu.op_class_0::total                100003445                       # Class of committed instruction
system.cpu.tickCycles                       114591569                       # Number of cycles that the object actually ticked
system.cpu.workload.numSyscalls                    19                       # Number of system calls
system.membus.snoop_filter.hit_multi_requests            0                       # Number of requests hitting in the snoop filter with multiple (>1) holders of the requested data.
system.membus.snoop_filter.hit_multi_snoops            0                       # Number of snoops hitting in the snoop filter with multiple (>1) holders of the requested data.
system.membus.snoop_filter.hit_single_requests       727600                       # Number of requests hitting in the snoop filter with a single holder of the requested data.
system.membus.snoop_filter.hit_single_snoops            0                       # Number of snoops hitting in the snoop filter with a single holder of the requested data.
system.membus.snoop_filter.tot_requests       1471928                       # Total number of requests made to the snoop filter.
system.membus.snoop_filter.tot_snoops               0                       # Total number of snoops made to the snoop filter.
system.tol2bus.snoop_filter.hit_multi_requests           28                       # Number of requests hitting in the snoop filter with multiple (>1) holders of the requested data.
system.tol2bus.snoop_filter.hit_multi_snoops            1                       # Number of snoops hitting in the snoop filter with multiple (>1) holders of the requested data.
system.tol2bus.snoop_filter.hit_single_requests       742992                       # Number of requests hitting in the snoop filter with a single holder of the requested data.
system.tol2bus.snoop_filter.hit_single_snoops          343                       # Number of snoops hitting in the snoop filter with a single holder of the requested data.
system.tol2bus.snoop_filter.tot_requests      1487349                       # Total number of requests made to the snoop filter.
system.tol2bus.snoop_filter.tot_snoops            344                       # Total number of snoops made to the snoop filter.
system.membus.pwrStateResidencyTicks::UNDEFINED 199037341000                       # Cumulative time (in ticks) in various power states
system.membus.trans_dist::ReadResp                403                       # Transaction distribution
system.membus.trans_dist::WritebackDirty       727552                       # Transaction distribution
system.membus.trans_dist::CleanEvict               48                       # Transaction distribution
system.membus.trans_dist::ReadExReq            743925                       # Transaction distribution
system.membus.trans_dist::ReadExResp           743925                       # Transaction distribution
system.membus.trans_dist::ReadSharedReq           403                       # Transaction distribution
system.membus.pkt_count_system.l2.mem_side::system.mem_ctrls.port      2216256                       # Packet count per connected master and slave (bytes)
system.membus.pkt_count::total                2216256                       # Packet count per connected master and slave (bytes)
system.membus.pkt_size_system.l2.mem_side::system.mem_ctrls.port    188400640                       # Cumulative packet size per connected master and slave (bytes)
system.membus.pkt_size::total               188400640                       # Cumulative packet size per connected master and slave (bytes)
system.membus.snoops                                0                       # Total snoops (count)
system.membus.snoopTraffic                          0                       # Total snoop traffic (bytes)
system.membus.snoop_fanout::samples            744328                       # Request fanout histogram
system.membus.snoop_fanout::mean                    0                       # Request fanout histogram
system.membus.snoop_fanout::stdev                   0                       # Request fanout histogram
system.membus.snoop_fanout::underflows              0      0.00%      0.00% # Request fanout histogram
system.membus.snoop_fanout::0                  744328    100.00%    100.00% # Request fanout histogram
system.membus.snoop_fanout::1                       0      0.00%    100.00% # Request fanout histogram
system.membus.snoop_fanout::overflows               0      0.00%    100.00% # Request fanout histogram
system.membus.snoop_fanout::min_value               0                       # Request fanout histogram
system.membus.snoop_fanout::max_value               0                       # Request fanout histogram
system.membus.snoop_fanout::total              744328                       # Request fanout histogram
system.membus.respLayer1.occupancy         6913585000                       # Layer occupancy (ticks)
system.membus.respLayer1.utilization              3.5                       # Layer utilization (%)
system.membus.reqLayer0.occupancy          7292344000                       # Layer occupancy (ticks)
system.membus.reqLayer0.utilization               3.7                       # Layer utilization (%)
system.tol2bus.pwrStateResidencyTicks::UNDEFINED 199037341000                       # Cumulative time (in ticks) in various power states
system.tol2bus.trans_dist::ReadResp               432                       # Transaction distribution
system.tol2bus.trans_dist::WritebackDirty      1470467                       # Transaction distribution
system.tol2bus.trans_dist::CleanEvict             468                       # Transaction distribution
system.tol2bus.trans_dist::ReadExReq           743926                       # Transaction distribution
system.tol2bus.trans_dist::ReadExResp          743925                       # Transaction distribution
system.tol2bus.trans_dist::ReadCleanReq           342                       # Transaction distribution
system.tol2bus.trans_dist::ReadSharedReq           90                       # Transaction distribution
system.tol2bus.pkt_count_system.cpu.icache.mem_side::system.l2.cpu_side          684                       # Packet count per connected master and slave (bytes)
system.tol2bus.pkt_count_system.cpu.dcache.mem_side::system.l2.cpu_side      2231022                       # Packet count per connected master and slave (bytes)
system.tol2bus.pkt_count::total               2231706                       # Packet count per connected master and slave (bytes)
system.tol2bus.pkt_size_system.cpu.icache.mem_side::system.l2.cpu_side        43776                       # Cumulative packet size per connected master and slave (bytes)
system.tol2bus.pkt_size_system.cpu.dcache.mem_side::system.l2.cpu_side    190327040                       # Cumulative packet size per connected master and slave (bytes)
system.tol2bus.pkt_size::total              190370816                       # Cumulative packet size per connected master and slave (bytes)
system.tol2bus.snoops                          727944                       # Total snoops (count)
system.tol2bus.snoopTraffic                  93126656                       # Total snoop traffic (bytes)
system.tol2bus.snoop_fanout::samples          1472302                       # Request fanout histogram
system.tol2bus.snoop_fanout::mean            0.000254                       # Request fanout histogram
system.tol2bus.snoop_fanout::stdev           0.015979                       # Request fanout histogram
system.tol2bus.snoop_fanout::underflows             0      0.00%      0.00% # Request fanout histogram
system.tol2bus.snoop_fanout::0                1471929     99.97%     99.97% # Request fanout histogram
system.tol2bus.snoop_fanout::1                    372      0.03%    100.00% # Request fanout histogram
system.tol2bus.snoop_fanout::2                      1      0.00%    100.00% # Request fanout histogram
system.tol2bus.snoop_fanout::overflows              0      0.00%    100.00% # Request fanout histogram
system.tol2bus.snoop_fanout::min_value              0                       # Request fanout histogram
system.tol2bus.snoop_fanout::max_value              2                       # Request fanout histogram
system.tol2bus.snoop_fanout::total            1472302                       # Request fanout histogram
system.tol2bus.reqLayer0.occupancy         4459009000                       # Layer occupancy (ticks)
system.tol2bus.reqLayer0.utilization              2.2                       # Layer utilization (%)
system.tol2bus.respLayer1.occupancy        3720076998                       # Layer occupancy (ticks)
system.tol2bus.respLayer1.utilization             1.9                       # Layer utilization (%)
system.tol2bus.respLayer0.occupancy           1710999                       # Layer occupancy (ticks)
system.tol2bus.respLayer0.utilization             0.0                       # Layer utilization (%)
system.voltage_domain.voltage                       1                       # Voltage in Volts
system.clk_domain.clock                          1000                       # Clock period in ticks
system.l2.pwrStateResidencyTicks::UNDEFINED 199037341000                       # Cumulative time (in ticks) in various power states
system.l2.demand_hits::.cpu.inst                   10                       # number of demand (read+write) hits
system.l2.demand_hits::.cpu.data                   16                       # number of demand (read+write) hits
system.l2.demand_hits::total                       26                       # number of demand (read+write) hits
system.l2.overall_hits::.cpu.inst                  10                       # number of overall hits
system.l2.overall_hits::.cpu.data                  16                       # number of overall hits
system.l2.overall_hits::total                      26                       # number of overall hits
system.l2.demand_misses::.cpu.inst                332                       # number of demand (read+write) misses
system.l2.demand_misses::.cpu.data             744000                       # number of demand (read+write) misses
system.l2.demand_misses::total                 744332                       # number of demand (read+write) misses
system.l2.overall_misses::.cpu.inst               332                       # number of overall misses
system.l2.overall_misses::.cpu.data            744000                       # number of overall misses
system.l2.overall_misses::total                744332                       # number of overall misses
system.l2.demand_miss_latency::.cpu.inst     34234000                       # number of demand (read+write) miss cycles
system.l2.demand_miss_latency::.cpu.data  80848543000                       # number of demand (read+write) miss cycles
system.l2.demand_miss_latency::total      80882777000                       # number of demand (read+write) miss cycles
system.l2.overall_miss_latency::.cpu.inst     34234000                       # number of overall miss cycles
system.l2.overall_miss_latency::.cpu.data  80848543000                       # number of overall miss cycles
system.l2.overall_miss_latency::total     80882777000                       # number of overall miss cycles
system.l2.demand_accesses::.cpu.inst              342                       # number of demand (read+write) accesses
system.l2.demand_accesses::.cpu.data           744016                       # number of demand (read+write) accesses
system.l2.demand_accesses::total               744358                       # number of demand (read+write) accesses
system.l2.overall_accesses::.cpu.inst             342                       # number of overall (read+write) accesses
system.l2.overall_accesses::.cpu.data          744016                       # number of overall (read+write) accesses
system.l2.overall_accesses::total              744358                       # number of overall (read+write) accesses
system.l2.demand_miss_rate::.cpu.inst        0.970760                       # miss rate for demand accesses
system.l2.demand_miss_rate::.cpu.data        0.999978                       # miss rate for demand accesses
system.l2.demand_miss_rate::total            0.999965                       # miss rate for demand accesses
system.l2.overall_miss_rate::.cpu.inst       0.970760                       # miss rate for overall accesses
system.l2.overall_miss_rate::.cpu.data       0.999978                       # miss rate for overall accesses
system.l2.overall_miss_rate::total           0.999965                       # miss rate for overall accesses
system.l2.demand_avg_miss_latency::.cpu.inst 103114.457831                       # average overall miss latency
system.l2.demand_avg_miss_latency::.cpu.data 108667.396505                       # average overall miss latency
system.l2.demand_avg_miss_latency::total 108664.919686                       # average overall miss latency
system.l2.overall_avg_miss_latency::.cpu.inst 103114.457831                       # average overall miss latency
system.l2.overall_avg_miss_latency::.cpu.data 108667.396505                       # average overall miss latency
system.l2.overall_avg_miss_latency::total 108664.919686                       # average overall miss latency
system.l2.blocked_cycles::no_mshrs                  0                       # number of cycles access was blocked
system.l2.blocked_cycles::no_targets                0                       # number of cycles access was blocked
system.l2.blocked::no_mshrs                         0                       # number of cycles access was blocked
system.l2.blocked::no_targets                       0                       # number of cycles access was blocked
system.l2.avg_blocked_cycles::no_mshrs            nan                       # average number of cycles each access was blocked
system.l2.avg_blocked_cycles::no_targets          nan                       # average number of cycles each access was blocked
system.l2.writebacks::.writebacks              727552                       # number of writebacks
system.l2.writebacks::total                    727552                       # number of writebacks
system.l2.demand_mshr_hits::.cpu.inst               1                       # number of demand (read+write) MSHR hits
system.l2.demand_mshr_hits::.cpu.data               2                       # number of demand (read+write) MSHR hits
system.l2.demand_mshr_hits::total                   3                       # number of demand (read+write) MSHR hits
system.l2.overall_mshr_hits::.cpu.inst              1                       # number of overall MSHR hits
system.l2.overall_mshr_hits::.cpu.data              2                       # number of overall MSHR hits
system.l2.overall_mshr_hits::total                  3                       # number of overall MSHR hits
system.l2.demand_mshr_misses::.cpu.inst           331                       # number of demand (read+write) MSHR misses
system.l2.demand_mshr_misses::.cpu.data        743998                       # number of demand (read+write) MSHR misses
system.l2.demand_mshr_misses::total            744329                       # number of demand (read+write) MSHR misses
system.l2.overall_mshr_misses::.cpu.inst          331                       # number of overall MSHR misses
system.l2.overall_mshr_misses::.cpu.data       743998                       # number of overall MSHR misses
system.l2.overall_mshr_misses::total           744329                       # number of overall MSHR misses
system.l2.demand_mshr_miss_latency::.cpu.inst     27522000                       # number of demand (read+write) MSHR miss cycles
system.l2.demand_mshr_miss_latency::.cpu.data  65968407000                       # number of demand (read+write) MSHR miss cycles
system.l2.demand_mshr_miss_latency::total  65995929000                       # number of demand (read+write) MSHR miss cycles
system.l2.overall_mshr_miss_latency::.cpu.inst     27522000                       # number of overall MSHR miss cycles
system.l2.overall_mshr_miss_latency::.cpu.data  65968407000                       # number of overall MSHR miss cycles
system.l2.overall_mshr_miss_latency::total  65995929000                       # number of overall MSHR miss cycles
system.l2.demand_mshr_miss_rate::.cpu.inst     0.967836                       # mshr miss rate for demand accesses
system.l2.demand_mshr_miss_rate::.cpu.data     0.999976                       # mshr miss rate for demand accesses
system.l2.demand_mshr_miss_rate::total       0.999961                       # mshr miss rate for demand accesses
system.l2.overall_mshr_miss_rate::.cpu.inst     0.967836                       # mshr miss rate for overall accesses
system.l2.overall_mshr_miss_rate::.cpu.data     0.999976                       # mshr miss rate for overall accesses
system.l2.overall_mshr_miss_rate::total      0.999961                       # mshr miss rate for overall accesses
system.l2.demand_avg_mshr_miss_latency::.cpu.inst 83148.036254                       # average overall mshr miss latency
system.l2.demand_avg_mshr_miss_latency::.cpu.data 88667.452063                       # average overall mshr miss latency
system.l2.demand_avg_mshr_miss_latency::total 88664.997602                       # average overall mshr miss latency
system.l2.overall_avg_mshr_miss_latency::.cpu.inst 83148.036254                       # average overall mshr miss latency
system.l2.overall_avg_mshr_miss_latency::.cpu.data 88667.452063                       # average overall mshr miss latency
system.l2.overall_avg_mshr_miss_latency::total 88664.997602                       # average overall mshr miss latency
system.l2.replacements                         727944                       # number of replacements
system.l2.WritebackDirty_hits::.writebacks       742915                       # number of WritebackDirty hits
system.l2.WritebackDirty_hits::total           742915                       # number of WritebackDirty hits
system.l2.WritebackDirty_accesses::.writebacks       742915                       # number of WritebackDirty accesses(hits+misses)
system.l2.WritebackDirty_accesses::total       742915                       # number of WritebackDirty accesses(hits+misses)
system.l2.ReadExReq_misses::.cpu.data          743926                       # number of ReadExReq misses
system.l2.ReadExReq_misses::total              743926                       # number of ReadExReq misses
system.l2.ReadExReq_miss_latency::.cpu.data  80840918000                       # number of ReadExReq miss cycles
system.l2.ReadExReq_miss_latency::total   80840918000                       # number of ReadExReq miss cycles
system.l2.ReadExReq_accesses::.cpu.data        743926                       # number of ReadExReq accesses(hits+misses)
system.l2.ReadExReq_accesses::total            743926                       # number of ReadExReq accesses(hits+misses)
system.l2.ReadExReq_miss_rate::.cpu.data            1                       # miss rate for ReadExReq accesses
system.l2.ReadExReq_miss_rate::total                1                       # miss rate for ReadExReq accesses
system.l2.ReadExReq_avg_miss_latency::.cpu.data 108667.956221                       # average ReadExReq miss latency
system.l2.ReadExReq_avg_miss_latency::total 108667.956221                       # average ReadExReq miss latency
system.l2.ReadExReq_mshr_misses::.cpu.data       743926                       # number of ReadExReq MSHR misses
system.l2.ReadExReq_mshr_misses::total         743926                       # number of ReadExReq MSHR misses
system.l2.ReadExReq_mshr_miss_latency::.cpu.data  65962418000                       # number of ReadExReq MSHR miss cycles
system.l2.ReadExReq_mshr_miss_latency::total  65962418000                       # number of ReadExReq MSHR miss cycles
system.l2.ReadExReq_mshr_miss_rate::.cpu.data            1                       # mshr miss rate for ReadExReq accesses
system.l2.ReadExReq_mshr_miss_rate::total            1                       # mshr miss rate for ReadExReq accesses
system.l2.ReadExReq_avg_mshr_miss_latency::.cpu.data 88667.983106                       # average ReadExReq mshr miss latency
system.l2.ReadExReq_avg_mshr_miss_latency::total 88667.983106                       # average ReadExReq mshr miss latency
system.l2.ReadCleanReq_hits::.cpu.inst             10                       # number of ReadCleanReq hits
system.l2.ReadCleanReq_hits::total                 10                       # number of ReadCleanReq hits
system.l2.ReadCleanReq_misses::.cpu.inst          332                       # number of ReadCleanReq misses
system.l2.ReadCleanReq_misses::total              332                       # number of ReadCleanReq misses
system.l2.ReadCleanReq_miss_latency::.cpu.inst     34234000                       # number of ReadCleanReq miss cycles
system.l2.ReadCleanReq_miss_latency::total     34234000                       # number of ReadCleanReq miss cycles
system.l2.ReadCleanReq_accesses::.cpu.inst          342                       # number of ReadCleanReq accesses(hits+misses)
system.l2.ReadCleanReq_accesses::total            342                       # number of ReadCleanReq accesses(hits+misses)
system.l2.ReadCleanReq_miss_rate::.cpu.inst     0.970760                       # miss rate for ReadCleanReq accesses
system.l2.ReadCleanReq_miss_rate::total      0.970760                       # miss rate for ReadCleanReq accesses
system.l2.ReadCleanReq_avg_miss_latency::.cpu.inst 103114.457831                       # average ReadCleanReq miss latency
system.l2.ReadCleanReq_avg_miss_latency::total 103114.457831                       # average ReadCleanReq miss latency
system.l2.ReadCleanReq_mshr_hits::.cpu.inst            1                       # number of ReadCleanReq MSHR hits
system.l2.ReadCleanReq_mshr_hits::total             1                       # number of ReadCleanReq MSHR hits
system.l2.ReadCleanReq_mshr_misses::.cpu.inst          331                       # number of ReadCleanReq MSHR misses
system.l2.ReadCleanReq_mshr_misses::total          331                       # number of ReadCleanReq MSHR misses
system.l2.ReadCleanReq_mshr_miss_latency::.cpu.inst     27522000                       # number of ReadCleanReq MSHR miss cycles
system.l2.ReadCleanReq_mshr_miss_latency::total     27522000                       # number of ReadCleanReq MSHR miss cycles
system.l2.ReadCleanReq_mshr_miss_rate::.cpu.inst     0.967836                       # mshr miss rate for ReadCleanReq accesses
system.l2.ReadCleanReq_mshr_miss_rate::total     0.967836                       # mshr miss rate for ReadCleanReq accesses
system.l2.ReadCleanReq_avg_mshr_miss_latency::.cpu.inst 83148.036254                       # average ReadCleanReq mshr miss latency
system.l2.ReadCleanReq_avg_mshr_miss_latency::total 83148.036254                       # average ReadCleanReq mshr miss latency
system.l2.ReadSharedReq_hits::.cpu.data            16                       # number of ReadSharedReq hits
system.l2.ReadSharedReq_hits::total                16                       # number of ReadSharedReq hits
system.l2.ReadSharedReq_misses::.cpu.data           74                       # number of ReadSharedReq misses
system.l2.ReadSharedReq_misses::total              74                       # number of ReadSharedReq misses
system.l2.ReadSharedReq_miss_latency::.cpu.data      7625000                       # number of ReadSharedReq miss cycles
system.l2.ReadSharedReq_miss_latency::total      7625000                       # number of ReadSharedReq miss cycles
system.l2.ReadSharedReq_accesses::.cpu.data           90                       # number of ReadSharedReq accesses(hits+misses)
system.l2.ReadSharedReq_accesses::total            90                       # number of ReadSharedReq accesses(hits+misses)
system.l2.ReadSharedReq_miss_rate::.cpu.data     0.822222                       # miss rate for ReadSharedReq accesses
system.l2.ReadSharedReq_miss_rate::total     0.822222                       # miss rate for ReadSharedReq accesses
system.l2.ReadSharedReq_avg_miss_latency::.cpu.data 103040.540541                       # average ReadSharedReq miss latency
system.l2.ReadSharedReq_avg_miss_latency::total 103040.540541                       # average ReadSharedReq miss latency
system.l2.ReadSharedReq_mshr_hits::.cpu.data            2                       # number of ReadSharedReq MSHR hits
system.l2.ReadSharedReq_mshr_hits::total            2                       # number of ReadSharedReq MSHR hits
system.l2.ReadSharedReq_mshr_misses::.cpu.data           72                       # number of ReadSharedReq MSHR misses
system.l2.ReadSharedReq_mshr_misses::total           72                       # number of ReadSharedReq MSHR misses
system.l2.ReadSharedReq_mshr_miss_latency::.cpu.data      5989000                       # number of ReadSharedReq MSHR miss cycles
system.l2.ReadSharedReq_mshr_miss_latency::total      5989000                       # number of ReadSharedReq MSHR miss cycles
system.l2.ReadSharedReq_mshr_miss_rate::.cpu.data     0.800000                       # mshr miss rate for ReadSharedReq accesses
system.l2.ReadSharedReq_mshr_miss_rate::total     0.800000                       # mshr miss rate for ReadSharedReq accesses
system.l2.ReadSharedReq_avg_mshr_miss_latency::.cpu.data 83180.555556                       # average ReadSharedReq mshr miss latency
system.l2.ReadSharedReq_avg_mshr_miss_latency::total 83180.555556                       # average ReadSharedReq mshr miss latency
system.l2.tags.pwrStateResidencyTicks::UNDEFINED 199037341000                       # Cumulative time (in ticks) in various power states
system.l2.tags.tagsinuse                 16211.880457                       # Cycle average of tags in use
system.l2.tags.total_refs                     1487317                       # Total number of references to valid blocks.
system.l2.tags.sampled_refs                    744328                       # Sample count of references to valid blocks.
system.l2.tags.avg_refs                      1.998201                       # Average number of references to valid blocks.
system.l2.tags.warmup_cycle                     92000                       # Cycle when the warmup percentage was hit.
system.l2.tags.occ_blocks::.cpu.inst         6.575451                       # Average occupied blocks per requestor
system.l2.tags.occ_blocks::.cpu.data     16205.305005                       # Average occupied blocks per requestor
system.l2.tags.occ_percent::.cpu.inst        0.000401                       # Average percentage of cache occupancy
system.l2.tags.occ_percent::.cpu.data        0.989093                       # Average percentage of cache occupancy
system.l2.tags.occ_percent::total            0.989495                       # Average percentage of cache occupancy
system.l2.tags.occ_task_id_blocks::1024         16384                       # Occupied blocks per task id
system.l2.tags.age_task_id_blocks_1024::0           37                       # Occupied blocks per task id
system.l2.tags.age_task_id_blocks_1024::1          335                       # Occupied blocks per task id
system.l2.tags.age_task_id_blocks_1024::2         3364                       # Occupied blocks per task id
system.l2.tags.age_task_id_blocks_1024::3        12648                       # Occupied blocks per task id
system.l2.tags.occ_task_id_percent::1024            1                       # Percentage of cache occupancy per task id
system.l2.tags.tag_accesses                  12642896                       # Number of tag accesses
system.l2.tags.data_accesses                 12642896                       # Number of data accesses
system.cpu_voltage_domain.voltage                   1                       # Voltage in Volts
system.mem_ctrls.pwrStateResidencyTicks::UNDEFINED 199037341000                       # Cumulative time (in ticks) in various power states
system.mem_ctrls.bytes_read::.cpu.inst          42368                       # Number of bytes read from this memory
system.mem_ctrls.bytes_read::.cpu.data       95231616                       # Number of bytes read from this memory
system.mem_ctrls.bytes_read::total           95273984                       # Number of bytes read from this memory
system.mem_ctrls.bytes_inst_read::.cpu.inst        42368                       # Number of instructions bytes read from this memory
system.mem_ctrls.bytes_inst_read::total         42368                       # Number of instructions bytes read from this memory
system.mem_ctrls.bytes_written::.writebacks     93126656                       # Number of bytes written to this memory
system.mem_ctrls.bytes_written::total        93126656                       # Number of bytes written to this memory
system.mem_ctrls.num_reads::.cpu.inst             331                       # Number of read requests responded to by this memory
system.mem_ctrls.num_reads::.cpu.data          743997                       # Number of read requests responded to by this memory
system.mem_ctrls.num_reads::total              744328                       # Number of read requests responded to by this memory
system.mem_ctrls.num_writes::.writebacks       727552                       # Number of write requests responded to by this memory
system.mem_ctrls.num_writes::total             727552                       # Number of write requests responded to by this memory
system.mem_ctrls.bw_read::.cpu.inst            212865                       # Total read bandwidth from this memory (bytes/s)
system.mem_ctrls.bw_read::.cpu.data         478461054                       # Total read bandwidth from this memory (bytes/s)
system.mem_ctrls.bw_read::total             478673919                       # Total read bandwidth from this memory (bytes/s)
system.mem_ctrls.bw_inst_read::.cpu.inst       212865                       # Instruction read bandwidth from this memory (bytes/s)
system.mem_ctrls.bw_inst_read::total           212865                       # Instruction read bandwidth from this memory (bytes/s)
system.mem_ctrls.bw_write::.writebacks      467885350                       # Write bandwidth from this memory (bytes/s)
system.mem_ctrls.bw_write::total            467885350                       # Write bandwidth from this memory (bytes/s)
system.mem_ctrls.bw_total::.writebacks      467885350                       # Total bandwidth to/from this memory (bytes/s)
system.mem_ctrls.bw_total::.cpu.inst           212865                       # Total bandwidth to/from this memory (bytes/s)
system.mem_ctrls.bw_total::.cpu.data        478461054                       # Total bandwidth to/from this memory (bytes/s)
system.mem_ctrls.bw_total::total            946559269                       # Total bandwidth to/from this memory (bytes/s)
system.mem_ctrls.avgPriority_.writebacks::samples   1455104.00                       # Average QoS priority value for accepted requests
system.mem_ctrls.avgPriority_.cpu.inst::samples       662.00                       # Average QoS priority value for accepted requests
system.mem_ctrls.avgPriority_.cpu.data::samples   1487994.00                       # Average QoS priority value for accepted requests
system.mem_ctrls.priorityMinLatency      0.000000018750                       # per QoS priority minimum request to response latency (s)
system.mem_ctrls.priorityMaxLatency      0.000601202500                       # per QoS priority maximum request to response latency (s)
system.mem_ctrls.numReadWriteTurnArounds        80853                       # Number of turnarounds from READ to WRITE
system.mem_ctrls.numWriteReadTurnArounds        80853                       # Number of turnarounds from WRITE to READ
system.mem_ctrls.numStayReadState             3007567                       # Number of times bus staying in READ state
system.mem_ctrls.numStayWriteState            1378169                       # Number of times bus staying in WRITE state
system.mem_ctrls.readReqs                      744328                       # Number of read requests accepted
system.mem_ctrls.writeReqs                     727552                       # Number of write requests accepted
system.mem_ctrls.readBursts                   1488656                       # Number of DRAM read bursts, including those serviced by the write queue
system.mem_ctrls.writeBursts                  1455104                       # Number of DRAM write bursts, including those merged in the write queue
system.mem_ctrls.servicedByWrQ                      0                       # Number of DRAM read bursts serviced by the write queue
system.mem_ctrls.mergedWrBursts                     0                       # Number of DRAM write bursts merged with an existing one
system.mem_ctrls.neitherReadNorWriteReqs            0                       # Number of requests that are neither read nor write
system.mem_ctrls.perBankRdBursts::0             93010                       # Per bank write bursts
system.mem_ctrls.perBankRdBursts::1             92990                       # Per bank write bursts
system.mem_ctrls.perBankRdBursts::2             93148                       # Per bank write bursts
system.mem_ctrls.perBankRdBursts::3             93098                       # Per bank write bursts
system.mem_ctrls.perBankRdBursts::4             93110                       # Per bank write bursts
system.mem_ctrls.perBankRdBursts::5             93068                       # Per bank write bursts
system.mem_ctrls.perBankRdBursts::6             93096                       # Per bank write bursts
system.mem_ctrls.perBankRdBursts::7             93074                       # Per bank write bursts
system.mem_ctrls.perBankRdBursts::8             93144                       # Per bank write bursts
system.mem_ctrls.perBankRdBursts::9             93052                       # Per bank write bursts
system.mem_ctrls.perBankRdBursts::10            92978                       # Per bank write bursts
system.mem_ctrls.perBankRdBursts::11            92968                       # Per bank write bursts
system.mem_ctrls.perBankRdBursts::12            93034                       # Per bank write bursts
system.mem_ctrls.perBankRdBursts::13            92934                       # Per bank write bursts
system.mem_ctrls.perBankRdBursts::14            92950                       # Per bank write bursts
system.mem_ctrls.perBankRdBursts::15            93002                       # Per bank write bursts
system.mem_ctrls.perBankWrBursts::0             90902                       # Per bank write bursts
system.mem_ctrls.perBankWrBursts::1             90898                       # Per bank write bursts
system.mem_ctrls.perBankWrBursts::2             90948                       # Per bank write bursts
system.mem_ctrls.perBankWrBursts::3             91010                       # Per bank write bursts
system.mem_ctrls.perBankWrBursts::4             91008                       # Per bank write bursts
system.mem_ctrls.perBankWrBursts::5             91008                       # Per bank write bursts
system.mem_ctrls.perBankWrBursts::6             91008                       # Per bank write bursts
system.mem_ctrls.perBankWrBursts::7             91008                       # Per bank write bursts
system.mem_ctrls.perBankWrBursts::8             91008                       # Per bank write bursts
system.mem_ctrls.perBankWrBursts::9             90939                       # Per bank write bursts
system.mem_ctrls.perBankWrBursts::10            90880                       # Per bank write bursts
system.mem_ctrls.perBankWrBursts::11            90880                       # Per bank write bursts
system.mem_ctrls.perBankWrBursts::12            90880                       # Per bank write bursts
system.mem_ctrls.perBankWrBursts::13            90880                       # Per bank write bursts
system.mem_ctrls.perBankWrBursts::14            90886                       # Per bank write bursts
system.mem_ctrls.perBankWrBursts::15            90930                       # Per bank write bursts
system.mem_ctrls.avgRdQLen                       2.00                       # Average read queue length when enqueuing
system.mem_ctrls.avgWrQLen                      24.67                       # Average write queue length when enqueuing
system.mem_ctrls.totQLat                  24006862250                       # Total ticks spent queuing
system.mem_ctrls.totBusLat                 7443280000                       # Total ticks spent in databus transfers
system.mem_ctrls.totMemAccLat             51919162250                       # Total ticks spent from burst creation until serviced by the DRAM
system.mem_ctrls.avgQLat                     16126.53                       # Average queueing delay per DRAM burst
system.mem_ctrls.avgBusLat                    5000.00                       # Average bus latency per DRAM burst
system.mem_ctrls.avgMemAccLat                34876.53                       # Average memory access latency per DRAM burst
system.mem_ctrls.numRdRetry                         0                       # Number of times read queue was full causing retry
system.mem_ctrls.numWrRetry                         0                       # Number of times write queue was full causing retry
system.mem_ctrls.readRowHits                  1321946                       # Number of row buffer hits during reads
system.mem_ctrls.writeRowHits                 1292230                       # Number of row buffer hits during writes
system.mem_ctrls.readRowHitRate                 88.80                       # Row buffer hit rate for reads
system.mem_ctrls.writeRowHitRate                88.81                       # Row buffer hit rate for writes
system.mem_ctrls.readPktSize::0                     0                       # Read request sizes (log2)
system.mem_ctrls.readPktSize::1                     0                       # Read request sizes (log2)
system.mem_ctrls.readPktSize::2                     0                       # Read request sizes (log2)
system.mem_ctrls.readPktSize::3                     0                       # Read request sizes (log2)
system.mem_ctrls.readPktSize::4                     0                       # Read request sizes (log2)
system.mem_ctrls.readPktSize::5                     0                       # Read request sizes (log2)
system.mem_ctrls.readPktSize::6               1488656                       # Read request sizes (log2)
system.mem_ctrls.writePktSize::0                    0                       # Write request sizes (log2)
system.mem_ctrls.writePktSize::1                    0                       # Write request sizes (log2)
system.mem_ctrls.writePktSize::2                    0                       # Write request sizes (log2)
system.mem_ctrls.writePktSize::3                    0                       # Write request sizes (log2)
system.mem_ctrls.writePktSize::4                    0                       # Write request sizes (log2)
system.mem_ctrls.writePktSize::5                    0                       # Write request sizes (log2)
system.mem_ctrls.writePktSize::6              1455104                       # Write request sizes (log2)
system.mem_ctrls.rdQLenPdf::0                  744280                       # What read queue length does an incoming req see
system.mem_ctrls.rdQLenPdf::1                  744285                       # What read queue length does an incoming req see
system.mem_ctrls.rdQLenPdf::2                      44                       # What read queue length does an incoming req see
system.mem_ctrls.rdQLenPdf::3                      40                       # What read queue length does an incoming req see
system.mem_ctrls.rdQLenPdf::4                       4                       # What read queue length does an incoming req see
system.mem_ctrls.rdQLenPdf::5                       3                       # What read queue length does an incoming req see
system.mem_ctrls.rdQLenPdf::6                       0                       # What read queue length does an incoming req see
system.mem_ctrls.rdQLenPdf::7                       0                       # What read queue length does an incoming req see
system.mem_ctrls.rdQLenPdf::8                       0                       # What read queue length does an incoming req see
system.mem_ctrls.rdQLenPdf::9                       0                       # What read queue length does an incoming req see
system.mem_ctrls.rdQLenPdf::10                      0                       # What read queue length does an incoming req see
system.mem_ctrls.rdQLenPdf::11                      0                       # What read queue length does an incoming req see
system.mem_ctrls.rdQLenPdf::12                      0                       # What read queue length does an incoming req see
system.mem_ctrls.rdQLenPdf::13                      0                       # What read queue length does an incoming req see
system.mem_ctrls.rdQLenPdf::14                      0                       # What read queue length does an incoming req see
system.mem_ctrls.rdQLenPdf::15                      0                       # What read queue length does an incoming req see
system.mem_ctrls.rdQLenPdf::16                      0                       # What read queue length does an incoming req see
system.mem_ctrls.rdQLenPdf::17                      0                       # What read queue length does an incoming req see
system.mem_ctrls.rdQLenPdf::18                      0                       # What read queue length does an incoming req see
system.mem_ctrls.rdQLenPdf::19                      0                       # What read queue length does an incoming req see
system.mem_ctrls.rdQLenPdf::20                      0                       # What read queue length does an incoming req see
system.mem_ctrls.rdQLenPdf::21                      0                       # What read queue length does an incoming req see
system.mem_ctrls.rdQLenPdf::22                      0                       # What read queue length does an incoming req see
system.mem_ctrls.rdQLenPdf::23                      0                       # What read queue length does an incoming req see
system.mem_ctrls.rdQLenPdf::24                      0                       # What read queue length does an incoming req see
system.mem_ctrls.rdQLenPdf::25                      0                       # What read queue length does an incoming req see
system.mem_ctrls.rdQLenPdf::26                      0                       # What read queue length does an incoming req see
system.mem_ctrls.rdQLenPdf::27                      0                       # What read queue length does an incoming req see
system.mem_ctrls.rdQLenPdf::28                      0                       # What read queue length does an incoming req see
system.mem_ctrls.rdQLenPdf::29                      0                       # What read queue length does an incoming req see
system.mem_ctrls.rdQLenPdf::30                      0                       # What read queue length does an incoming req see
system.mem_ctrls.rdQLenPdf::31                      0                       # What read queue length does an incoming req see
system.mem_ctrls.wrQLenPdf::0                       1                       # What write queue length does an incoming req see
system.mem_ctrls.wrQLenPdf::1                       1                       # What write queue length does an incoming req see
system.mem_ctrls.wrQLenPdf::2                       1                       # What write queue length does an incoming req see
system.mem_ctrls.wrQLenPdf::3                       1                       # What write queue length does an incoming req see
system.mem_ctrls.wrQLenPdf::4                       1                       # What write queue length does an incoming req see
system.mem_ctrls.wrQLenPdf::5                       1                       # What write queue length does an incoming req see
system.mem_ctrls.wrQLenPdf::6                       1                       # What write queue length does an incoming req see
system.mem_ctrls.wrQLenPdf::7                       1                       # What write queue length does an incoming req see
system.mem_ctrls.wrQLenPdf::8                       1                       # What write queue length does an incoming req see
system.mem_ctrls.wrQLenPdf::9                       1                       # What write queue length does an incoming req see
system.mem_ctrls.wrQLenPdf::10                      1                       # What write queue length does an incoming req see
system.mem_ctrls.wrQLenPdf::11                      1                       # What write queue length does an incoming req see
system.mem_ctrls.wrQLenPdf::12                      1                       # What write queue length does an incoming req see
system.mem_ctrls.wrQLenPdf::13                      1                       # What write queue length does an incoming req see
system.mem_ctrls.wrQLenPdf::14                      1                       # What write queue length does an incoming req see
system.mem_ctrls.wrQLenPdf::15                  80572                       # What write queue length does an incoming req see
system.mem_ctrls.wrQLenPdf::16                  80572                       # What write queue length does an incoming req see
system.mem_ctrls.wrQLenPdf::17                  80854                       # What write queue length does an incoming req see
system.mem_ctrls.wrQLenPdf::18                  80854                       # What write queue length does an incoming req see
system.mem_ctrls.wrQLenPdf::19                  80854                       # What write queue length does an incoming req see
system.mem_ctrls.wrQLenPdf::20                  80854                       # What write queue length does an incoming req see
system.mem_ctrls.wrQLenPdf::21                  80856                       # What write queue length does an incoming req see
system.mem_ctrls.wrQLenPdf::22                  80995                       # What write queue length does an incoming req see
system.mem_ctrls.wrQLenPdf::23                  80993                       # What write queue length does an incoming req see
system.mem_ctrls.wrQLenPdf::24                  80854                       # What write queue length does an incoming req see
system.mem_ctrls.wrQLenPdf::25                  80854                       # What write queue length does an incoming req see
system.mem_ctrls.wrQLenPdf::26                  80854                       # What write queue length does an incoming req see
system.mem_ctrls.wrQLenPdf::27                  80854                       # What write queue length does an incoming req see
system.mem_ctrls.wrQLenPdf::28                  80854                       # What write queue length does an incoming req see
system.mem_ctrls.wrQLenPdf::29                  80854                       # What write queue length does an incoming req see
system.mem_ctrls.wrQLenPdf::30                  80854                       # What write queue length does an incoming req see
system.mem_ctrls.wrQLenPdf::31                  80853                       # What write queue length does an incoming req see
system.mem_ctrls.wrQLenPdf::32                  80853                       # What write queue length does an incoming req see
system.mem_ctrls.wrQLenPdf::33                      1                       # What write queue length does an incoming req see
system.mem_ctrls.wrQLenPdf::34                      0                       # What write queue length does an incoming req see
system.mem_ctrls.wrQLenPdf::35                      0                       # What write queue length does an incoming req see
system.mem_ctrls.wrQLenPdf::36                      0                       # What write queue length does an incoming req see
system.mem_ctrls.wrQLenPdf::37                      0                       # What write queue length does an incoming req see
system.mem_ctrls.wrQLenPdf::38                      0                       # What write queue length does an incoming req see
system.mem_ctrls.wrQLenPdf::39                      0                       # What write queue length does an incoming req see
system.mem_ctrls.wrQLenPdf::40                      0                       # What write queue length does an incoming req see
system.mem_ctrls.wrQLenPdf::41                      0                       # What write queue length does an incoming req see
system.mem_ctrls.wrQLenPdf::42                      0                       # What write queue length does an incoming req see
system.mem_ctrls.wrQLenPdf::43                      0                       # What write queue length does an incoming req see
system.mem_ctrls.wrQLenPdf::44                      0                       # What write queue length does an incoming req see
system.mem_ctrls.wrQLenPdf::45                      0                       # What write queue length does an incoming req see
system.mem_ctrls.wrQLenPdf::46                      0                       # What write queue length does an incoming req see
system.mem_ctrls.wrQLenPdf::47                      0                       # What write queue length does an incoming req see
system.mem_ctrls.wrQLenPdf::48                      0                       # What write queue length does an incoming req see
system.mem_ctrls.wrQLenPdf::49                      0                       # What write queue length does an incoming req see
system.mem_ctrls.wrQLenPdf::50                      0                       # What write queue length does an incoming req see
system.mem_ctrls.wrQLenPdf::51                      0                       # What write queue length does an incoming req see
system.mem_ctrls.wrQLenPdf::52                      0                       # What write queue length does an incoming req see
system.mem_ctrls.wrQLenPdf::53                      0                       # What write queue length does an incoming req see
system.mem_ctrls.wrQLenPdf::54                      0                       # What write queue length does an incoming req see
system.mem_ctrls.wrQLenPdf::55                      0                       # What write queue length does an incoming req see
system.mem_ctrls.wrQLenPdf::56                      0                       # What write queue length does an incoming req see
system.mem_ctrls.wrQLenPdf::57                      0                       # What write queue length does an incoming req see
system.mem_ctrls.wrQLenPdf::58                      0                       # What write queue length does an incoming req see
system.mem_ctrls.wrQLenPdf::59                      0                       # What write queue length does an incoming req see
system.mem_ctrls.wrQLenPdf::60                      0                       # What write queue length does an incoming req see
system.mem_ctrls.wrQLenPdf::61                      0                       # What write queue length does an incoming req see
system.mem_ctrls.wrQLenPdf::62                      0                       # What write queue length does an incoming req see
system.mem_ctrls.wrQLenPdf::63                      0                       # What write queue length does an incoming req see
system.mem_ctrls.bytesPerActivate::samples       329553                       # Bytes accessed per row activation
system.mem_ctrls.bytesPerActivate::mean    571.679384                       # Bytes accessed per row activation
system.mem_ctrls.bytesPerActivate::gmean   383.183988                       # Bytes accessed per row activation
system.mem_ctrls.bytesPerActivate::stdev   415.284150                       # Bytes accessed per row activation
system.mem_ctrls.bytesPerActivate::0-127         5401      1.64%      1.64% # Bytes accessed per row activation
system.mem_ctrls.bytesPerActivate::128-255       128529     39.00%     40.64% # Bytes accessed per row activation
system.mem_ctrls.bytesPerActivate::256-383        13191      4.00%     44.64% # Bytes accessed per row activation
system.mem_ctrls.bytesPerActivate::384-511        11937      3.62%     48.26% # Bytes accessed per row activation
system.mem_ctrls.bytesPerActivate::512-639         9814      2.98%     51.24% # Bytes accessed per row activation
system.mem_ctrls.bytesPerActivate::640-767         8143      2.47%     53.71% # Bytes accessed per row activation
system.mem_ctrls.bytesPerActivate::768-895        10357      3.14%     56.86% # Bytes accessed per row activation
system.mem_ctrls.bytesPerActivate::896-1023        10917      3.31%     60.17% # Bytes accessed per row activation
system.mem_ctrls.bytesPerActivate::1024-1151       131264     39.83%    100.00% # Bytes accessed per row activation
system.mem_ctrls.bytesPerActivate::total       329553                       # Bytes accessed per row activation
system.mem_ctrls.rdPerTurnAround::samples        80853                       # Reads before turning the bus around for writes
system.mem_ctrls.rdPerTurnAround::mean      18.411685                       # Reads before turning the bus around for writes
system.mem_ctrls.rdPerTurnAround::gmean     17.999692                       # Reads before turning the bus around for writes
system.mem_ctrls.rdPerTurnAround::stdev    109.940817                       # Reads before turning the bus around for writes
system.mem_ctrls.rdPerTurnAround::0-1023        80851    100.00%    100.00% # Reads before turning the bus around for writes
system.mem_ctrls.rdPerTurnAround::2048-3071            1      0.00%    100.00% # Reads before turning the bus around for writes
system.mem_ctrls.rdPerTurnAround::30720-31743            1      0.00%    100.00% # Reads before turning the bus around for writes
system.mem_ctrls.rdPerTurnAround::total         80853                       # Reads before turning the bus around for writes
system.mem_ctrls.wrPerTurnAround::samples        80853                       # Writes before turning the bus around for reads
system.mem_ctrls.wrPerTurnAround::mean      17.996525                       # Writes before turning the bus around for reads
system.mem_ctrls.wrPerTurnAround::gmean     17.995925                       # Writes before turning the bus around for reads
system.mem_ctrls.wrPerTurnAround::stdev      0.144663                       # Writes before turning the bus around for reads
system.mem_ctrls.wrPerTurnAround::16              282      0.35%      0.35% # Writes before turning the bus around for reads
system.mem_ctrls.wrPerTurnAround::18            80429     99.48%     99.82% # Writes before turning the bus around for reads
system.mem_ctrls.wrPerTurnAround::19                1      0.00%     99.83% # Writes before turning the bus around for reads
system.mem_ctrls.wrPerTurnAround::20              141      0.17%    100.00% # Writes before turning the bus around for reads
system.mem_ctrls.wrPerTurnAround::total         80853                       # Writes before turning the bus around for reads
system.mem_ctrls.bytesReadDRAM               95273984                       # Total number of bytes read from DRAM
[...]
system.cpu.icache.tags.occ_percent::.cpu.inst     0.333933                       # Average percentage of cache occupancy
system.cpu.icache.tags.occ_percent::total     0.333933                       # Average percentage of cache occupancy
system.cpu.icache.tags.occ_task_id_blocks::1024          342                       # Occupied blocks per task id
system.cpu.icache.tags.age_task_id_blocks_1024::4          342                       # Occupied blocks per task id
system.cpu.icache.tags.occ_task_id_percent::1024     0.333984                       # Percentage of cache occupancy per task id
system.cpu.icache.tags.tag_accesses          14313450                       # Number of tag accesses
system.cpu.icache.tags.data_accesses         14313450                       # Number of data accesses
system.cpu.dtb.walker.pwrStateResidencyTicks::UNDEFINED 199037341000                       # Cumulative time (in ticks) in various power states
system.cpu.dtb.stage2_mmu.stage2_tlb.walker.pwrStateResidencyTicks::UNDEFINED 199037341000                       # Cumulative time (in ticks) in various power states
system.cpu.dcache.pwrStateResidencyTicks::UNDEFINED 199037341000                       # Cumulative time (in ticks) in various power states
system.cpu.dcache.demand_hits::.cpu.data     47318506                       # number of demand (read+write) hits
system.cpu.dcache.demand_hits::total         47318506                       # number of demand (read+write) hits
system.cpu.dcache.overall_hits::.cpu.data     47318541                       # number of overall hits
system.cpu.dcache.overall_hits::total        47318541                       # number of overall hits
system.cpu.dcache.demand_misses::.cpu.data      1487922                       # number of demand (read+write) misses
system.cpu.dcache.demand_misses::total        1487922                       # number of demand (read+write) misses
system.cpu.dcache.overall_misses::.cpu.data      1487939                       # number of overall misses
system.cpu.dcache.overall_misses::total       1487939                       # number of overall misses
system.cpu.dcache.demand_miss_latency::.cpu.data 162729833000                       # number of demand (read+write) miss cycles
system.cpu.dcache.demand_miss_latency::total 162729833000                       # number of demand (read+write) miss cycles
system.cpu.dcache.overall_miss_latency::.cpu.data 162729833000                       # number of overall miss cycles
system.cpu.dcache.overall_miss_latency::total 162729833000                       # number of overall miss cycles
system.cpu.dcache.demand_accesses::.cpu.data     48806428                       # number of demand (read+write) accesses
system.cpu.dcache.demand_accesses::total     48806428                       # number of demand (read+write) accesses
system.cpu.dcache.overall_accesses::.cpu.data     48806480                       # number of overall (read+write) accesses
system.cpu.dcache.overall_accesses::total     48806480                       # number of overall (read+write) accesses
system.cpu.dcache.demand_miss_rate::.cpu.data     0.030486                       # miss rate for demand accesses
system.cpu.dcache.demand_miss_rate::total     0.030486                       # miss rate for demand accesses
system.cpu.dcache.overall_miss_rate::.cpu.data     0.030487                       # miss rate for overall accesses
system.cpu.dcache.overall_miss_rate::total     0.030487                       # miss rate for overall accesses
system.cpu.dcache.demand_avg_miss_latency::.cpu.data 109367.179866                       # average overall miss latency
system.cpu.dcache.demand_avg_miss_latency::total 109367.179866                       # average overall miss latency
system.cpu.dcache.overall_avg_miss_latency::.cpu.data 109365.930324                       # average overall miss latency
system.cpu.dcache.overall_avg_miss_latency::total 109365.930324                       # average overall miss latency
system.cpu.dcache.blocked_cycles::no_mshrs            0                       # number of cycles access was blocked
system.cpu.dcache.blocked_cycles::no_targets            0                       # number of cycles access was blocked
system.cpu.dcache.blocked::no_mshrs                 0                       # number of cycles access was blocked
system.cpu.dcache.blocked::no_targets               0                       # number of cycles access was blocked
system.cpu.dcache.avg_blocked_cycles::no_mshrs          nan                       # average number of cycles each access was blocked
system.cpu.dcache.avg_blocked_cycles::no_targets          nan                       # average number of cycles each access was blocked
system.cpu.dcache.writebacks::.writebacks       742915                       # number of writebacks
system.cpu.dcache.writebacks::total            742915                       # number of writebacks
system.cpu.dcache.demand_mshr_hits::.cpu.data       743917                       # number of demand (read+write) MSHR hits
system.cpu.dcache.demand_mshr_hits::total       743917                       # number of demand (read+write) MSHR hits
system.cpu.dcache.overall_mshr_hits::.cpu.data       743917                       # number of overall MSHR hits
system.cpu.dcache.overall_mshr_hits::total       743917                       # number of overall MSHR hits
system.cpu.dcache.demand_mshr_misses::.cpu.data       744005                       # number of demand (read+write) MSHR misses
system.cpu.dcache.demand_mshr_misses::total       744005                       # number of demand (read+write) MSHR misses
system.cpu.dcache.overall_mshr_misses::.cpu.data       744015                       # number of overall MSHR misses
system.cpu.dcache.overall_mshr_misses::total       744015                       # number of overall MSHR misses
system.cpu.dcache.demand_mshr_miss_latency::.cpu.data  83079744000                       # number of demand (read+write) MSHR miss cycles
system.cpu.dcache.demand_mshr_miss_latency::total  83079744000                       # number of demand (read+write) MSHR miss cycles
system.cpu.dcache.overall_mshr_miss_latency::.cpu.data  83080861000                       # number of overall MSHR miss cycles
system.cpu.dcache.overall_mshr_miss_latency::total  83080861000                       # number of overall MSHR miss cycles
system.cpu.dcache.demand_mshr_miss_rate::.cpu.data     0.015244                       # mshr miss rate for demand accesses
system.cpu.dcache.demand_mshr_miss_rate::total     0.015244                       # mshr miss rate for demand accesses
system.cpu.dcache.overall_mshr_miss_rate::.cpu.data     0.015244                       # mshr miss rate for overall accesses
system.cpu.dcache.overall_mshr_miss_rate::total     0.015244                       # mshr miss rate for overall accesses
system.cpu.dcache.demand_avg_mshr_miss_latency::.cpu.data 111665.572140                       # average overall mshr miss latency
system.cpu.dcache.demand_avg_mshr_miss_latency::total 111665.572140                       # average overall mshr miss latency
system.cpu.dcache.overall_avg_mshr_miss_latency::.cpu.data 111665.572603                       # average overall mshr miss latency
system.cpu.dcache.overall_avg_mshr_miss_latency::total 111665.572603                       # average overall mshr miss latency
system.cpu.dcache.replacements                 742991                       # number of replacements
system.cpu.dcache.ReadReq_hits::.cpu.data     35710821                       # number of ReadReq hits
system.cpu.dcache.ReadReq_hits::total        35710821                       # number of ReadReq hits
system.cpu.dcache.ReadReq_misses::.cpu.data           85                       # number of ReadReq misses
system.cpu.dcache.ReadReq_misses::total            85                       # number of ReadReq misses
system.cpu.dcache.ReadReq_miss_latency::.cpu.data      7896000                       # number of ReadReq miss cycles
system.cpu.dcache.ReadReq_miss_latency::total      7896000                       # number of ReadReq miss cycles
system.cpu.dcache.ReadReq_accesses::.cpu.data     35710906                       # number of ReadReq accesses(hits+misses)
system.cpu.dcache.ReadReq_accesses::total     35710906                       # number of ReadReq accesses(hits+misses)
system.cpu.dcache.ReadReq_miss_rate::.cpu.data     0.000002                       # miss rate for ReadReq accesses
system.cpu.dcache.ReadReq_miss_rate::total     0.000002                       # miss rate for ReadReq accesses
system.cpu.dcache.ReadReq_avg_miss_latency::.cpu.data 92894.117647                       # average ReadReq miss latency
system.cpu.dcache.ReadReq_avg_miss_latency::total 92894.117647                       # average ReadReq miss latency
system.cpu.dcache.ReadReq_mshr_hits::.cpu.data            6                       # number of ReadReq MSHR hits
system.cpu.dcache.ReadReq_mshr_hits::total            6                       # number of ReadReq MSHR hits
system.cpu.dcache.ReadReq_mshr_misses::.cpu.data           79                       # number of ReadReq MSHR misses
system.cpu.dcache.ReadReq_mshr_misses::total           79                       # number of ReadReq MSHR misses
system.cpu.dcache.ReadReq_mshr_miss_latency::.cpu.data      7050000                       # number of ReadReq MSHR miss cycles
system.cpu.dcache.ReadReq_mshr_miss_latency::total      7050000                       # number of ReadReq MSHR miss cycles
system.cpu.dcache.ReadReq_mshr_miss_rate::.cpu.data     0.000002                       # mshr miss rate for ReadReq accesses
system.cpu.dcache.ReadReq_mshr_miss_rate::total     0.000002                       # mshr miss rate for ReadReq accesses
system.cpu.dcache.ReadReq_avg_mshr_miss_latency::.cpu.data 89240.506329                       # average ReadReq mshr miss latency
system.cpu.dcache.ReadReq_avg_mshr_miss_latency::total 89240.506329                       # average ReadReq mshr miss latency
system.cpu.dcache.WriteReq_hits::.cpu.data     11607685                       # number of WriteReq hits
system.cpu.dcache.WriteReq_hits::total       11607685                       # number of WriteReq hits
system.cpu.dcache.WriteReq_misses::.cpu.data      1487837                       # number of WriteReq misses
system.cpu.dcache.WriteReq_misses::total      1487837                       # number of WriteReq misses
system.cpu.dcache.WriteReq_miss_latency::.cpu.data 162721937000                       # number of WriteReq miss cycles
system.cpu.dcache.WriteReq_miss_latency::total 162721937000                       # number of WriteReq miss cycles
system.cpu.dcache.WriteReq_accesses::.cpu.data     13095522                       # number of WriteReq accesses(hits+misses)
system.cpu.dcache.WriteReq_accesses::total     13095522                       # number of WriteReq accesses(hits+misses)
system.cpu.dcache.WriteReq_miss_rate::.cpu.data     0.113614                       # miss rate for WriteReq accesses
system.cpu.dcache.WriteReq_miss_rate::total     0.113614                       # miss rate for WriteReq accesses
system.cpu.dcache.WriteReq_avg_miss_latency::.cpu.data 109368.120970                       # average WriteReq miss latency
system.cpu.dcache.WriteReq_avg_miss_latency::total 109368.120970                       # average WriteReq miss latency
system.cpu.dcache.WriteReq_mshr_hits::.cpu.data       743911                       # number of WriteReq MSHR hits
system.cpu.dcache.WriteReq_mshr_hits::total       743911                       # number of WriteReq MSHR hits
system.cpu.dcache.WriteReq_mshr_misses::.cpu.data       743926                       # number of WriteReq MSHR misses
system.cpu.dcache.WriteReq_mshr_misses::total       743926                       # number of WriteReq MSHR misses
system.cpu.dcache.WriteReq_mshr_miss_latency::.cpu.data  83072694000                       # number of WriteReq MSHR miss cycles
system.cpu.dcache.WriteReq_mshr_miss_latency::total  83072694000                       # number of WriteReq MSHR miss cycles
system.cpu.dcache.WriteReq_mshr_miss_rate::.cpu.data     0.056808                       # mshr miss rate for WriteReq accesses
system.cpu.dcache.WriteReq_mshr_miss_rate::total     0.056808                       # mshr miss rate for WriteReq accesses
system.cpu.dcache.WriteReq_avg_mshr_miss_latency::.cpu.data 111667.953533                       # average WriteReq mshr miss latency
system.cpu.dcache.WriteReq_avg_mshr_miss_latency::total 111667.953533                       # average WriteReq mshr miss latency
system.cpu.dcache.SoftPFReq_hits::.cpu.data           35                       # number of SoftPFReq hits
system.cpu.dcache.SoftPFReq_hits::total            35                       # number of SoftPFReq hits
system.cpu.dcache.SoftPFReq_misses::.cpu.data           17                       # number of SoftPFReq misses
system.cpu.dcache.SoftPFReq_misses::total           17                       # number of SoftPFReq misses
system.cpu.dcache.SoftPFReq_accesses::.cpu.data           52                       # number of SoftPFReq accesses(hits+misses)
system.cpu.dcache.SoftPFReq_accesses::total           52                       # number of SoftPFReq accesses(hits+misses)
system.cpu.dcache.SoftPFReq_miss_rate::.cpu.data     0.326923                       # miss rate for SoftPFReq accesses
system.cpu.dcache.SoftPFReq_miss_rate::total     0.326923                       # miss rate for SoftPFReq accesses
system.cpu.dcache.SoftPFReq_mshr_misses::.cpu.data           10                       # number of SoftPFReq MSHR misses
system.cpu.dcache.SoftPFReq_mshr_misses::total           10                       # number of SoftPFReq MSHR misses
system.cpu.dcache.SoftPFReq_mshr_miss_latency::.cpu.data      1117000                       # number of SoftPFReq MSHR miss cycles
system.cpu.dcache.SoftPFReq_mshr_miss_latency::total      1117000                       # number of SoftPFReq MSHR miss cycles
system.cpu.dcache.SoftPFReq_mshr_miss_rate::.cpu.data     0.192308                       # mshr miss rate for SoftPFReq accesses
system.cpu.dcache.SoftPFReq_mshr_miss_rate::total     0.192308                       # mshr miss rate for SoftPFReq accesses
system.cpu.dcache.SoftPFReq_avg_mshr_miss_latency::.cpu.data       111700                       # average SoftPFReq mshr miss latency
system.cpu.dcache.SoftPFReq_avg_mshr_miss_latency::total       111700                       # average SoftPFReq mshr miss latency
system.cpu.dcache.LoadLockedReq_hits::.cpu.data           13                       # number of LoadLockedReq hits
system.cpu.dcache.LoadLockedReq_hits::total           13                       # number of LoadLockedReq hits
system.cpu.dcache.LoadLockedReq_misses::.cpu.data            1                       # number of LoadLockedReq misses
system.cpu.dcache.LoadLockedReq_misses::total            1                       # number of LoadLockedReq misses
system.cpu.dcache.LoadLockedReq_miss_latency::.cpu.data       100000                       # number of LoadLockedReq miss cycles
system.cpu.dcache.LoadLockedReq_miss_latency::total       100000                       # number of LoadLockedReq miss cycles
system.cpu.dcache.LoadLockedReq_accesses::.cpu.data           14                       # number of LoadLockedReq accesses(hits+misses)
system.cpu.dcache.LoadLockedReq_accesses::total           14                       # number of LoadLockedReq accesses(hits+misses)
system.cpu.dcache.LoadLockedReq_miss_rate::.cpu.data     0.071429                       # miss rate for LoadLockedReq accesses
system.cpu.dcache.LoadLockedReq_miss_rate::total     0.071429                       # miss rate for LoadLockedReq accesses
system.cpu.dcache.LoadLockedReq_avg_miss_latency::.cpu.data       100000                       # average LoadLockedReq miss latency
system.cpu.dcache.LoadLockedReq_avg_miss_latency::total       100000                       # average LoadLockedReq miss latency
system.cpu.dcache.LoadLockedReq_mshr_misses::.cpu.data            1                       # number of LoadLockedReq MSHR misses
system.cpu.dcache.LoadLockedReq_mshr_misses::total            1                       # number of LoadLockedReq MSHR misses
system.cpu.dcache.LoadLockedReq_mshr_miss_latency::.cpu.data        98000                       # number of LoadLockedReq MSHR miss cycles
system.cpu.dcache.LoadLockedReq_mshr_miss_latency::total        98000                       # number of LoadLockedReq MSHR miss cycles
system.cpu.dcache.LoadLockedReq_mshr_miss_rate::.cpu.data     0.071429                       # mshr miss rate for LoadLockedReq accesses
system.cpu.dcache.LoadLockedReq_mshr_miss_rate::total     0.071429                       # mshr miss rate for LoadLockedReq accesses
system.cpu.dcache.LoadLockedReq_avg_mshr_miss_latency::.cpu.data        98000                       # average LoadLockedReq mshr miss latency
system.cpu.dcache.LoadLockedReq_avg_mshr_miss_latency::total        98000                       # average LoadLockedReq mshr miss latency
system.cpu.dcache.StoreCondReq_hits::.cpu.data           14                       # number of StoreCondReq hits
system.cpu.dcache.StoreCondReq_hits::total           14                       # number of StoreCondReq hits
system.cpu.dcache.StoreCondReq_accesses::.cpu.data           14                       # number of StoreCondReq accesses(hits+misses)
system.cpu.dcache.StoreCondReq_accesses::total           14                       # number of StoreCondReq accesses(hits+misses)
system.cpu.dcache.tags.pwrStateResidencyTicks::UNDEFINED 199037341000                       # Cumulative time (in ticks) in various power states
system.cpu.dcache.tags.tagsinuse          1023.115233                       # Cycle average of tags in use
system.cpu.dcache.tags.total_refs            48062583                       # Total number of references to valid blocks.
system.cpu.dcache.tags.sampled_refs            744015                       # Sample count of references to valid blocks.
system.cpu.dcache.tags.avg_refs             64.598944                       # Average number of references to valid blocks.
system.cpu.dcache.tags.warmup_cycle            255000                       # Cycle when the warmup percentage was hit.
system.cpu.dcache.tags.occ_blocks::.cpu.data  1023.115233                       # Average occupied blocks per requestor
system.cpu.dcache.tags.occ_percent::.cpu.data     0.999136                       # Average percentage of cache occupancy
system.cpu.dcache.tags.occ_percent::total     0.999136                       # Average percentage of cache occupancy
system.cpu.dcache.tags.occ_task_id_blocks::1024         1024                       # Occupied blocks per task id
system.cpu.dcache.tags.age_task_id_blocks_1024::0           37                       # Occupied blocks per task id
system.cpu.dcache.tags.age_task_id_blocks_1024::1          335                       # Occupied blocks per task id
system.cpu.dcache.tags.age_task_id_blocks_1024::2          649                       # Occupied blocks per task id
system.cpu.dcache.tags.age_task_id_blocks_1024::4            3                       # Occupied blocks per task id
system.cpu.dcache.tags.occ_task_id_percent::1024            1                       # Percentage of cache occupancy per task id
system.cpu.dcache.tags.tag_accesses         195970047                       # Number of tag accesses
system.cpu.dcache.tags.data_accesses        195970047                       # Number of data accesses
system.cpu.itb.walker.pwrStateResidencyTicks::UNDEFINED 199037341000                       # Cumulative time (in ticks) in various power states
system.cpu.itb.stage2_mmu.stage2_tlb.walker.pwrStateResidencyTicks::UNDEFINED 199037341000                       # Cumulative time (in ticks) in various power states

---------- End Simulation Statistics   ----------
