
---------- Begin Simulation Statistics ----------
final_tick                               704096840000                       # Number of ticks from beginning of simulation (restored from checkpoints and never reset)
host_inst_rate                                  98136                       # Simulator instruction rate (inst/s)
host_mem_usage                                 741388                       # Number of bytes of host memory used
host_op_rate                                   180744                       # Simulator op (including micro ops) rate (op/s)
host_seconds                                  1019.00                       # Real time elapsed on the host
host_tick_rate                              690969044                       # Simulator tick rate (ticks/s)
sim_freq                                 1000000000000                       # Frequency of simulated ticks
sim_insts                                   100000000                       # Number of instructions simulated
sim_ops                                     184177569                       # Number of ops (including micro ops) simulated
sim_seconds                                  0.704097                       # Number of seconds simulated
sim_ticks                                704096840000                       # Number of ticks simulated
system.clk_domain.clock                          1000                       # Clock period in ticks
system.cpu.branchPred.BTBCorrect                    0                       # Number of correct BTB predictions (this stat may not work properly.
system.cpu.branchPred.BTBHitPct             99.958517                       # BTB Hit Percentage
system.cpu.branchPred.BTBHits                10561414                       # Number of BTB hits
system.cpu.branchPred.BTBLookups             10565797                       # Number of BTB lookups
system.cpu.branchPred.RASInCorrect                  5                       # Number of incorrect RAS predictions.
system.cpu.branchPred.condIncorrect              1466                       # Number of conditional branches incorrect
system.cpu.branchPred.condPredicted          10562397                       # Number of conditional branches predicted
system.cpu.branchPred.indirectHits                 27                       # Number of indirect target hits.
system.cpu.branchPred.indirectLookups             188                       # Number of indirect predictor lookups.
system.cpu.branchPred.indirectMisses              161                       # Number of indirect misses.
system.cpu.branchPred.lookups                10570560                       # Number of BP lookups
system.cpu.branchPred.usedRAS                    2712                       # Number of times the RAS was used to get a target.
system.cpu.branchPredindirectMispredicted          102                       # Number of mispredicted indirect branches.
system.cpu.committedInsts                   100000000                       # Number of instructions committed
system.cpu.committedOps                     184177569                       # Number of ops (including micro ops) committed
system.cpu.cpi                               7.040968                       # CPI: cycles per instruction
system.cpu.dcache.LoadLockedReq_accesses::.cpu.data           34                       # number of LoadLockedReq accesses(hits+misses)
system.cpu.dcache.LoadLockedReq_accesses::total           34                       # number of LoadLockedReq accesses(hits+misses)
system.cpu.dcache.LoadLockedReq_avg_miss_latency::.cpu.data        95000                       # average LoadLockedReq miss latency
system.cpu.dcache.LoadLockedReq_avg_miss_latency::total        95000                       # average LoadLockedReq miss latency
system.cpu.dcache.LoadLockedReq_avg_mshr_miss_latency::.cpu.data        93000                       # average LoadLockedReq mshr miss latency
system.cpu.dcache.LoadLockedReq_avg_mshr_miss_latency::total        93000                       # average LoadLockedReq mshr miss latency
system.cpu.dcache.LoadLockedReq_hits::.cpu.data           33                       # number of LoadLockedReq hits
system.cpu.dcache.LoadLockedReq_hits::total           33                       # number of LoadLockedReq hits
system.cpu.dcache.LoadLockedReq_miss_latency::.cpu.data        95000                       # number of LoadLockedReq miss cycles
system.cpu.dcache.LoadLockedReq_miss_latency::total        95000                       # number of LoadLockedReq miss cycles
system.cpu.dcache.LoadLockedReq_miss_rate::.cpu.data     0.029412                       # miss rate for LoadLockedReq accesses
system.cpu.dcache.LoadLockedReq_miss_rate::total     0.029412                       # miss rate for LoadLockedReq accesses
system.cpu.dcache.LoadLockedReq_misses::.cpu.data            1                       # number of LoadLockedReq misses
system.cpu.dcache.LoadLockedReq_misses::total            1                       # number of LoadLockedReq misses
system.cpu.dcache.LoadLockedReq_mshr_miss_latency::.cpu.data        93000                       # number of LoadLockedReq MSHR miss cycles
system.cpu.dcache.LoadLockedReq_mshr_miss_latency::total        93000                       # number of LoadLockedReq MSHR miss cycles
system.cpu.dcache.LoadLockedReq_mshr_miss_rate::.cpu.data     0.029412                       # mshr miss rate for LoadLockedReq accesses
system.cpu.dcache.LoadLockedReq_mshr_miss_rate::total     0.029412                       # mshr miss rate for LoadLockedReq accesses
system.cpu.dcache.LoadLockedReq_mshr_misses::.cpu.data            1                       # number of LoadLockedReq MSHR misses
system.cpu.dcache.LoadLockedReq_mshr_misses::total            1                       # number of LoadLockedReq MSHR misses
system.cpu.dcache.ReadReq_accesses::.cpu.data      2044049                       # number of ReadReq accesses(hits+misses)
system.cpu.dcache.ReadReq_accesses::total      2044049                       # number of ReadReq accesses(hits+misses)
system.cpu.dcache.ReadReq_avg_miss_latency::.cpu.data 81597.087379                       # average ReadReq miss latency
system.cpu.dcache.ReadReq_avg_miss_latency::total 81597.087379                       # average ReadReq miss latency
system.cpu.dcache.ReadReq_avg_mshr_miss_latency::.cpu.data 78843.589744                       # average ReadReq mshr miss latency
system.cpu.dcache.ReadReq_avg_mshr_miss_latency::total 78843.589744                       # average ReadReq mshr miss latency
system.cpu.dcache.ReadReq_hits::.cpu.data      2043637                       # number of ReadReq hits
system.cpu.dcache.ReadReq_hits::total         2043637                       # number of ReadReq hits
system.cpu.dcache.ReadReq_miss_latency::.cpu.data     33618000                       # number of ReadReq miss cycles
system.cpu.dcache.ReadReq_miss_latency::total     33618000                       # number of ReadReq miss cycles
system.cpu.dcache.ReadReq_miss_rate::.cpu.data     0.000202                       # miss rate for ReadReq accesses
system.cpu.dcache.ReadReq_miss_rate::total     0.000202                       # miss rate for ReadReq accesses
system.cpu.dcache.ReadReq_misses::.cpu.data          412                       # number of ReadReq misses
system.cpu.dcache.ReadReq_misses::total           412                       # number of ReadReq misses
system.cpu.dcache.ReadReq_mshr_hits::.cpu.data           22                       # number of ReadReq MSHR hits
system.cpu.dcache.ReadReq_mshr_hits::total           22                       # number of ReadReq MSHR hits
system.cpu.dcache.ReadReq_mshr_miss_latency::.cpu.data     30749000                       # number of ReadReq MSHR miss cycles
system.cpu.dcache.ReadReq_mshr_miss_latency::total     30749000                       # number of ReadReq MSHR miss cycles
system.cpu.dcache.ReadReq_mshr_miss_rate::.cpu.data     0.000191                       # mshr miss rate for ReadReq accesses
system.cpu.dcache.ReadReq_mshr_miss_rate::total     0.000191                       # mshr miss rate for ReadReq accesses
system.cpu.dcache.ReadReq_mshr_misses::.cpu.data          390                       # number of ReadReq MSHR misses
system.cpu.dcache.ReadReq_mshr_misses::total          390                       # number of ReadReq MSHR misses
system.cpu.dcache.SoftPFReq_accesses::.cpu.data           40                       # number of SoftPFReq accesses(hits+misses)
system.cpu.dcache.SoftPFReq_accesses::total           40                       # number of SoftPFReq accesses(hits+misses)
system.cpu.dcache.SoftPFReq_avg_mshr_miss_latency::.cpu.data 102307.692308                       # average SoftPFReq mshr miss latency
system.cpu.dcache.SoftPFReq_avg_mshr_miss_latency::total 102307.692308                       # average SoftPFReq mshr miss latency
system.cpu.dcache.SoftPFReq_hits::.cpu.data           22                       # number of SoftPFReq hits
system.cpu.dcache.SoftPFReq_hits::total            22                       # number of SoftPFReq hits
system.cpu.dcache.SoftPFReq_miss_rate::.cpu.data     0.450000                       # miss rate for SoftPFReq accesses
system.cpu.dcache.SoftPFReq_miss_rate::total     0.450000                       # miss rate for SoftPFReq accesses
system.cpu.dcache.SoftPFReq_misses::.cpu.data           18                       # number of SoftPFReq misses
system.cpu.dcache.SoftPFReq_misses::total           18                       # number of SoftPFReq misses
system.cpu.dcache.SoftPFReq_mshr_miss_latency::.cpu.data      1330000                       # number of SoftPFReq MSHR miss cycles
system.cpu.dcache.SoftPFReq_mshr_miss_latency::total      1330000                       # number of SoftPFReq MSHR miss cycles
system.cpu.dcache.SoftPFReq_mshr_miss_rate::.cpu.data     0.325000                       # mshr miss rate for SoftPFReq accesses
system.cpu.dcache.SoftPFReq_mshr_miss_rate::total     0.325000                       # mshr miss rate for SoftPFReq accesses
system.cpu.dcache.SoftPFReq_mshr_misses::.cpu.data           13                       # number of SoftPFReq MSHR misses
system.cpu.dcache.SoftPFReq_mshr_misses::total           13                       # number of SoftPFReq MSHR misses
system.cpu.dcache.StoreCondReq_accesses::.cpu.data           34                       # number of StoreCondReq accesses(hits+misses)
system.cpu.dcache.StoreCondReq_accesses::total           34                       # number of StoreCondReq accesses(hits+misses)
system.cpu.dcache.StoreCondReq_hits::.cpu.data           34                       # number of StoreCondReq hits
system.cpu.dcache.StoreCondReq_hits::total           34                       # number of StoreCondReq hits
system.cpu.dcache.WriteReq_accesses::.cpu.data     84339639                       # number of WriteReq accesses(hits+misses)
system.cpu.dcache.WriteReq_accesses::total     84339639                       # number of WriteReq accesses(hits+misses)
system.cpu.dcache.WriteReq_avg_miss_latency::.cpu.data 105207.330166                       # average WriteReq miss latency
system.cpu.dcache.WriteReq_avg_miss_latency::total 105207.330166                       # average WriteReq miss latency
system.cpu.dcache.WriteReq_avg_mshr_miss_latency::.cpu.data 102709.894700                       # average WriteReq mshr miss latency
system.cpu.dcache.WriteReq_avg_mshr_miss_latency::total 102709.894700                       # average WriteReq mshr miss latency
system.cpu.dcache.WriteReq_hits::.cpu.data     73815893                       # number of WriteReq hits
system.cpu.dcache.WriteReq_hits::total       73815893                       # number of WriteReq hits
system.cpu.dcache.WriteReq_miss_latency::.cpu.data 1107175220000                       # number of WriteReq miss cycles
system.cpu.dcache.WriteReq_miss_latency::total 1107175220000                       # number of WriteReq miss cycles
system.cpu.dcache.WriteReq_miss_rate::.cpu.data     0.124778                       # miss rate for WriteReq accesses
system.cpu.dcache.WriteReq_miss_rate::total     0.124778                       # miss rate for WriteReq accesses
system.cpu.dcache.WriteReq_misses::.cpu.data     10523746                       # number of WriteReq misses
system.cpu.dcache.WriteReq_misses::total     10523746                       # number of WriteReq misses
system.cpu.dcache.WriteReq_mshr_hits::.cpu.data      5260595                       # number of WriteReq MSHR hits
system.cpu.dcache.WriteReq_mshr_hits::total      5260595                       # number of WriteReq MSHR hits
system.cpu.dcache.WriteReq_mshr_miss_latency::.cpu.data 540577685000                       # number of WriteReq MSHR miss cycles
system.cpu.dcache.WriteReq_mshr_miss_latency::total 540577685000                       # number of WriteReq MSHR miss cycles
system.cpu.dcache.WriteReq_mshr_miss_rate::.cpu.data     0.062404                       # mshr miss rate for WriteReq accesses
system.cpu.dcache.WriteReq_mshr_miss_rate::total     0.062404                       # mshr miss rate for WriteReq accesses
system.cpu.dcache.WriteReq_mshr_misses::.cpu.data      5263151                       # number of WriteReq MSHR misses
system.cpu.dcache.WriteReq_mshr_misses::total      5263151                       # number of WriteReq MSHR misses
system.cpu.dcache.avg_blocked_cycles::no_mshrs          nan                       # average number of cycles each access was blocked
system.cpu.dcache.avg_blocked_cycles::no_targets          nan                       # average number of cycles each access was blocked
system.cpu.dcache.blocked::no_mshrs                 0                       # number of cycles access was blocked
system.cpu.dcache.blocked::no_targets               0                       # number of cycles access was blocked
system.cpu.dcache.blocked_cycles::no_mshrs            0                       # number of cycles access was blocked
system.cpu.dcache.blocked_cycles::no_targets            0                       # number of cycles access was blocked
system.cpu.dcache.demand_accesses::.cpu.data     86383688                       # number of demand (read+write) accesses
system.cpu.dcache.demand_accesses::total     86383688                       # number of demand (read+write) accesses
system.cpu.dcache.demand_avg_miss_latency::.cpu.data 105206.405871                       # average overall miss latency
system.cpu.dcache.demand_avg_miss_latency::total 105206.405871                       # average overall miss latency
system.cpu.dcache.demand_avg_mshr_miss_latency::.cpu.data 102708.126335                       # average overall mshr miss latency
system.cpu.dcache.demand_avg_mshr_miss_latency::total 102708.126335                       # average overall mshr miss latency
system.cpu.dcache.demand_hits::.cpu.data     75859530                       # number of demand (read+write) hits
system.cpu.dcache.demand_hits::total         75859530                       # number of demand (read+write) hits
system.cpu.dcache.demand_miss_latency::.cpu.data 1107208838000                       # number of demand (read+write) miss cycles
system.cpu.dcache.demand_miss_latency::total 1107208838000                       # number of demand (read+write) miss cycles
system.cpu.dcache.demand_miss_rate::.cpu.data     0.121830                       # miss rate for demand accesses
system.cpu.dcache.demand_miss_rate::total     0.121830                       # miss rate for demand accesses
system.cpu.dcache.demand_misses::.cpu.data     10524158                       # number of demand (read+write) misses
system.cpu.dcache.demand_misses::total       10524158                       # number of demand (read+write) misses
system.cpu.dcache.demand_mshr_hits::.cpu.data      5260617                       # number of demand (read+write) MSHR hits
system.cpu.dcache.demand_mshr_hits::total      5260617                       # number of demand (read+write) MSHR hits
system.cpu.dcache.demand_mshr_miss_latency::.cpu.data 540608434000                       # number of demand (read+write) MSHR miss cycles
system.cpu.dcache.demand_mshr_miss_latency::total 540608434000                       # number of demand (read+write) MSHR miss cycles
system.cpu.dcache.demand_mshr_miss_rate::.cpu.data     0.060932                       # mshr miss rate for demand accesses
system.cpu.dcache.demand_mshr_miss_rate::total     0.060932                       # mshr miss rate for demand accesses
system.cpu.dcache.demand_mshr_misses::.cpu.data      5263541                       # number of demand (read+write) MSHR misses
system.cpu.dcache.demand_mshr_misses::total      5263541                       # number of demand (read+write) MSHR misses
system.cpu.dcache.overall_accesses::.cpu.data     86383728                       # number of overall (read+write) accesses
system.cpu.dcache.overall_accesses::total     86383728                       # number of overall (read+write) accesses
system.cpu.dcache.overall_avg_miss_latency::.cpu.data 105206.225932                       # average overall miss latency
system.cpu.dcache.overall_avg_miss_latency::total 105206.225932                       # average overall miss latency
system.cpu.dcache.overall_avg_mshr_miss_latency::.cpu.data 102708.125346                       # average overall mshr miss latency
system.cpu.dcache.overall_avg_mshr_miss_latency::total 102708.125346                       # average overall mshr miss latency
system.cpu.dcache.overall_hits::.cpu.data     75859552                       # number of overall hits
system.cpu.dcache.overall_hits::total        75859552                       # number of overall hits
system.cpu.dcache.overall_miss_latency::.cpu.data 1107208838000                       # number of overall miss cycles
system.cpu.dcache.overall_miss_latency::total 1107208838000                       # number of overall miss cycles
system.cpu.dcache.overall_miss_rate::.cpu.data     0.121831                       # miss rate for overall accesses
system.cpu.dcache.overall_miss_rate::total     0.121831                       # miss rate for overall accesses
system.cpu.dcache.overall_misses::.cpu.data     10524176                       # number of overall misses
system.cpu.dcache.overall_misses::total      10524176                       # number of overall misses
system.cpu.dcache.overall_mshr_hits::.cpu.data      5260617                       # number of overall MSHR hits
system.cpu.dcache.overall_mshr_hits::total      5260617                       # number of overall MSHR hits
system.cpu.dcache.overall_mshr_miss_latency::.cpu.data 540609764000                       # number of overall MSHR miss cycles
system.cpu.dcache.overall_mshr_miss_latency::total 540609764000                       # number of overall MSHR miss cycles
system.cpu.dcache.overall_mshr_miss_rate::.cpu.data     0.060932                       # mshr miss rate for overall accesses
system.cpu.dcache.overall_mshr_miss_rate::total     0.060932                       # mshr miss rate for overall accesses
system.cpu.dcache.overall_mshr_misses::.cpu.data      5263554                       # number of overall MSHR misses
system.cpu.dcache.overall_mshr_misses::total      5263554                       # number of overall MSHR misses
system.cpu.dcache.pwrStateResidencyTicks::UNDEFINED 704096840000                       # Cumulative time (in ticks) in various power states
system.cpu.dcache.replacements                5262531                       # number of replacements
system.cpu.dcache.tags.age_task_id_blocks_1024::0           74                       # Occupied blocks per task id
system.cpu.dcache.tags.age_task_id_blocks_1024::1          679                       # Occupied blocks per task id
system.cpu.dcache.tags.age_task_id_blocks_1024::2          271                       # Occupied blocks per task id
system.cpu.dcache.tags.avg_refs             15.412240                       # Average number of references to valid blocks.
system.cpu.dcache.tags.data_accesses        178031147                       # Number of data accesses
system.cpu.dcache.tags.occ_blocks::.cpu.data  1023.260110                       # Average occupied blocks per requestor
system.cpu.dcache.tags.occ_percent::.cpu.data     0.999277                       # Average percentage of cache occupancy
system.cpu.dcache.tags.occ_percent::total     0.999277                       # Average percentage of cache occupancy
system.cpu.dcache.tags.occ_task_id_blocks::1024         1024                       # Occupied blocks per task id
system.cpu.dcache.tags.occ_task_id_percent::1024            1                       # Percentage of cache occupancy per task id
system.cpu.dcache.tags.pwrStateResidencyTicks::UNDEFINED 704096840000                       # Cumulative time (in ticks) in various power states
system.cpu.dcache.tags.sampled_refs           5263555                       # Sample count of references to valid blocks.
system.cpu.dcache.tags.tag_accesses         178031147                       # Number of tag accesses
system.cpu.dcache.tags.tagsinuse          1023.260110                       # Cycle average of tags in use
system.cpu.dcache.tags.total_refs            81123174                       # Total number of references to valid blocks.
system.cpu.dcache.tags.warmup_cycle            223000                       # Cycle when the warmup percentage was hit.
system.cpu.dcache.writebacks::.writebacks      5262169                       # number of writebacks
system.cpu.dcache.writebacks::total           5262169                       # number of writebacks
system.cpu.discardedOps                          4314                       # Number of ops (including micro ops) which were discarded before commit
system.cpu.dstage2_mmu.stage2_tlb.accesses            0                       # DTB accesses
system.cpu.dstage2_mmu.stage2_tlb.align_faults            0                       # Number of TLB faults due to alignment restrictions
system.cpu.dstage2_mmu.stage2_tlb.domain_faults            0                       # Number of TLB faults due to domain restrictions
system.cpu.dstage2_mmu.stage2_tlb.flush_entries            0                       # Number of entries that have been flushed from TLB
system.cpu.dstage2_mmu.stage2_tlb.flush_tlb            0                       # Number of times complete TLB was flushed
system.cpu.dstage2_mmu.stage2_tlb.flush_tlb_asid            0                       # Number of times TLB was flushed by ASID
system.cpu.dstage2_mmu.stage2_tlb.flush_tlb_mva            0                       # Number of times TLB was flushed by MVA
system.cpu.dstage2_mmu.stage2_tlb.flush_tlb_mva_asid            0                       # Number of times TLB was flushed by MVA & ASID
system.cpu.dstage2_mmu.stage2_tlb.hits              0                       # DTB hits
system.cpu.dstage2_mmu.stage2_tlb.inst_accesses            0                       # ITB inst accesses
system.cpu.dstage2_mmu.stage2_tlb.inst_hits            0                       # ITB inst hits
system.cpu.dstage2_mmu.stage2_tlb.inst_misses            0                       # ITB inst misses
system.cpu.dstage2_mmu.stage2_tlb.misses            0                       # DTB misses
system.cpu.dstage2_mmu.stage2_tlb.perms_faults            0                       # Number of TLB faults due to permissions restrictions
system.cpu.dstage2_mmu.stage2_tlb.prefetch_faults            0                       # Number of TLB faults due to prefetch
system.cpu.dstage2_mmu.stage2_tlb.read_accesses            0                       # DTB read accesses
system.cpu.dstage2_mmu.stage2_tlb.read_hits            0                       # DTB read hits
system.cpu.dstage2_mmu.stage2_tlb.read_misses            0                       # DTB read misses
system.cpu.dstage2_mmu.stage2_tlb.walker.pwrStateResidencyTicks::UNDEFINED 704096840000                       # Cumulative time (in ticks) in various power states
system.cpu.dstage2_mmu.stage2_tlb.walker.walkRequestOrigin_Requested::Data            0                       # Table walker requests started/completed, data/inst
system.cpu.dstage2_mmu.stage2_tlb.walker.walkRequestOrigin_Requested::Inst            0                       # Table walker requests started/completed, data/inst
system.cpu.dstage2_mmu.stage2_tlb.walker.walkRequestOrigin_Requested::total            0                       # Table walker requests started/completed, data/inst
system.cpu.dstage2_mmu.stage2_tlb.walker.walkRequestOrigin_Completed::Data            0                       # Table walker requests started/completed, data/inst
system.cpu.dstage2_mmu.stage2_tlb.walker.walkRequestOrigin_Completed::Inst            0                       # Table walker requests started/completed, data/inst
system.cpu.dstage2_mmu.stage2_tlb.walker.walkRequestOrigin_Completed::total            0                       # Table walker requests started/completed, data/inst
system.cpu.dstage2_mmu.stage2_tlb.walker.walkRequestOrigin::total            0                       # Table walker requests started/completed, data/inst
system.cpu.dstage2_mmu.stage2_tlb.walker.walks            0                       # Table walker walks requested
system.cpu.dstage2_mmu.stage2_tlb.write_accesses            0                       # DTB write accesses
system.cpu.dstage2_mmu.stage2_tlb.write_hits            0                       # DTB write hits
system.cpu.dstage2_mmu.stage2_tlb.write_misses            0                       # DTB write misses
system.cpu.dtb.accesses                             0                       # DTB accesses
system.cpu.dtb.align_faults                         0                       # Number of TLB faults due to alignment restrictions
system.cpu.dtb.domain_faults                        0                       # Number of TLB faults due to domain restrictions
system.cpu.dtb.flush_entries                        0                       # Number of entries that have been flushed from TLB
system.cpu.dtb.flush_tlb                            0                       # Number of times complete TLB was flushed
system.cpu.dtb.flush_tlb_asid                       0                       # Number of times TLB was flushed by ASID
system.cpu.dtb.flush_tlb_mva                        0                       # Number of times TLB was flushed by MVA
system.cpu.dtb.flush_tlb_mva_asid                   0                       # Number of times TLB was flushed by MVA & ASID
system.cpu.dtb.hits                                 0                       # DTB hits
system.cpu.dtb.inst_accesses                        0                       # ITB inst accesses
system.cpu.dtb.inst_hits                            0                       # ITB inst hits
system.cpu.dtb.inst_misses                          0                       # ITB inst misses
system.cpu.dtb.misses                               0                       # DTB misses
system.cpu.dtb.perms_faults                         0                       # Number of TLB faults due to permissions restrictions
system.cpu.dtb.prefetch_faults                      0                       # Number of TLB faults due to prefetch
system.cpu.dtb.read_accesses                        0                       # DTB read accesses
system.cpu.dtb.read_hits                            0                       # DTB read hits
system.cpu.dtb.read_misses                          0                       # DTB read misses
system.cpu.dtb.walker.pwrStateResidencyTicks::UNDEFINED 704096840000                       # Cumulative time (in ticks) in various power states
system.cpu.dtb.walker.walkRequestOrigin_Requested::Data            0                       # Table walker requests started/completed, data/inst
system.cpu.dtb.walker.walkRequestOrigin_Requested::Inst            0                       # Table walker requests started/completed, data/inst
system.cpu.dtb.walker.walkRequestOrigin_Requested::total            0                       # Table walker requests started/completed, data/inst
system.cpu.dtb.walker.walkRequestOrigin_Completed::Data            0                       # Table walker requests started/completed, data/inst
system.cpu.dtb.walker.walkRequestOrigin_Completed::Inst            0                       # Table walker requests started/completed, data/inst
system.cpu.dtb.walker.walkRequestOrigin_Completed::total            0                       # Table walker requests started/completed, data/inst
system.cpu.dtb.walker.walkRequestOrigin::total            0                       # Table walker requests started/completed, data/inst
system.cpu.dtb.walker.walks                         0                       # Table walker walks requested
system.cpu.dtb.write_accesses                       0                       # DTB write accesses
system.cpu.dtb.write_hits                           0                       # DTB write hits
system.cpu.dtb.write_misses                         0                       # DTB write misses
system.cpu.fetch2.amo_instructions                  0                       # Number of memory atomic instructions successfully decoded
system.cpu.fetch2.fp_instructions                   0                       # Number of floating point instructions successfully decoded
system.cpu.fetch2.int_instructions           44892631                       # Number of integer instructions successfully decoded
system.cpu.fetch2.load_instructions           2086541                       # Number of memory load instructions successfully decoded
system.cpu.fetch2.store_instructions           169413                       # Number of memory store instructions successfully decoded
system.cpu.fetch2.vec_instructions                  0                       # Number of SIMD instructions successfully decoded
system.cpu.icache.ReadReq_accesses::.cpu.inst     42406590                       # number of ReadReq accesses(hits+misses)
system.cpu.icache.ReadReq_accesses::total     42406590                       # number of ReadReq accesses(hits+misses)
system.cpu.icache.ReadReq_avg_miss_latency::.cpu.inst 97009.287926                       # average ReadReq miss latency
system.cpu.icache.ReadReq_avg_miss_latency::total 97009.287926                       # average ReadReq miss latency
system.cpu.icache.ReadReq_avg_mshr_miss_latency::.cpu.inst 95009.287926                       # average ReadReq mshr miss latency
system.cpu.icache.ReadReq_avg_mshr_miss_latency::total 95009.287926                       # average ReadReq mshr miss latency
system.cpu.icache.ReadReq_hits::.cpu.inst     42405944                       # number of ReadReq hits
system.cpu.icache.ReadReq_hits::total        42405944                       # number of ReadReq hits
system.cpu.icache.ReadReq_miss_latency::.cpu.inst     62668000                       # number of ReadReq miss cycles
system.cpu.icache.ReadReq_miss_latency::total     62668000                       # number of ReadReq miss cycles
system.cpu.icache.ReadReq_miss_rate::.cpu.inst     0.000015                       # miss rate for ReadReq accesses
system.cpu.icache.ReadReq_miss_rate::total     0.000015                       # miss rate for ReadReq accesses
system.cpu.icache.ReadReq_misses::.cpu.inst          646                       # number of ReadReq misses
system.cpu.icache.ReadReq_misses::total           646                       # number of ReadReq misses
system.cpu.icache.ReadReq_mshr_miss_latency::.cpu.inst     61376000                       # number of ReadReq MSHR miss cycles
system.cpu.icache.ReadReq_mshr_miss_latency::total     61376000                       # number of ReadReq MSHR miss cycles
system.cpu.icache.ReadReq_mshr_miss_rate::.cpu.inst     0.000015                       # mshr miss rate for ReadReq accesses
system.cpu.icache.ReadReq_mshr_miss_rate::total     0.000015                       # mshr miss rate for ReadReq accesses
system.cpu.icache.ReadReq_mshr_misses::.cpu.inst          646                       # number of ReadReq MSHR misses
system.cpu.icache.ReadReq_mshr_misses::total          646                       # number of ReadReq MSHR misses
system.cpu.icache.avg_blocked_cycles::no_mshrs          nan                       # average number of cycles each access was blocked
system.cpu.icache.avg_blocked_cycles::no_targets          nan                       # average number of cycles each access was blocked
system.cpu.icache.blocked::no_mshrs                 0                       # number of cycles access was blocked
system.cpu.icache.blocked::no_targets               0                       # number of cycles access was blocked
system.cpu.icache.blocked_cycles::no_mshrs            0                       # number of cycles access was blocked
system.cpu.icache.blocked_cycles::no_targets            0                       # number of cycles access was blocked
system.cpu.icache.demand_accesses::.cpu.inst     42406590                       # number of demand (read+write) accesses
system.cpu.icache.demand_accesses::total     42406590                       # number of demand (read+write) accesses
system.cpu.icache.demand_avg_miss_latency::.cpu.inst 97009.287926                       # average overall miss latency
system.cpu.icache.demand_avg_miss_latency::total 97009.287926                       # average overall miss latency
system.cpu.icache.demand_avg_mshr_miss_latency::.cpu.inst 95009.287926                       # average overall mshr miss latency
system.cpu.icache.demand_avg_mshr_miss_latency::total 95009.287926                       # average overall mshr miss latency
system.cpu.icache.demand_hits::.cpu.inst     42405944                       # number of demand (read+write) hits
system.cpu.icache.demand_hits::total         42405944                       # number of demand (read+write) hits
system.cpu.icache.demand_miss_latency::.cpu.inst     62668000                       # number of demand (read+write) miss cycles
system.cpu.icache.demand_miss_latency::total     62668000                       # number of demand (read+write) miss cycles
system.cpu.icache.demand_miss_rate::.cpu.inst     0.000015                       # miss rate for demand accesses
system.cpu.icache.demand_miss_rate::total     0.000015                       # miss rate for demand accesses
system.cpu.icache.demand_misses::.cpu.inst          646                       # number of demand (read+write) misses
system.cpu.icache.demand_misses::total            646                       # number of demand (read+write) misses
system.cpu.icache.demand_mshr_miss_latency::.cpu.inst     61376000                       # number of demand (read+write) MSHR miss cycles
system.cpu.icache.demand_mshr_miss_latency::total     61376000                       # number of demand (read+write) MSHR miss cycles
system.cpu.icache.demand_mshr_miss_rate::.cpu.inst     0.000015                       # mshr miss rate for demand accesses
system.cpu.icache.demand_mshr_miss_rate::total     0.000015                       # mshr miss rate for demand accesses
system.cpu.icache.demand_mshr_misses::.cpu.inst          646                       # number of demand (read+write) MSHR misses
system.cpu.icache.demand_mshr_misses::total          646                       # number of demand (read+write) MSHR misses
system.cpu.icache.overall_accesses::.cpu.inst     42406590                       # number of overall (read+write) accesses
system.cpu.icache.overall_accesses::total     42406590                       # number of overall (read+write) accesses
system.cpu.icache.overall_avg_miss_latency::.cpu.inst 97009.287926                       # average overall miss latency
system.cpu.icache.overall_avg_miss_latency::total 97009.287926                       # average overall miss latency
system.cpu.icache.overall_avg_mshr_miss_latency::.cpu.inst 95009.287926                       # average overall mshr miss latency
system.cpu.icache.overall_avg_mshr_miss_latency::total 95009.287926                       # average overall mshr miss latency
system.cpu.icache.overall_hits::.cpu.inst     42405944                       # number of overall hits
system.cpu.icache.overall_hits::total        42405944                       # number of overall hits
system.cpu.icache.overall_miss_latency::.cpu.inst     62668000                       # number of overall miss cycles
system.cpu.icache.overall_miss_latency::total     62668000                       # number of overall miss cycles
system.cpu.icache.overall_miss_rate::.cpu.inst     0.000015                       # miss rate for overall accesses
system.cpu.icache.overall_miss_rate::total     0.000015                       # miss rate for overall accesses
system.cpu.icache.overall_misses::.cpu.inst          646                       # number of overall misses
system.cpu.icache.overall_misses::total           646                       # number of overall misses
system.cpu.icache.overall_mshr_miss_latency::.cpu.inst     61376000                       # number of overall MSHR miss cycles
system.cpu.icache.overall_mshr_miss_latency::total     61376000                       # number of overall MSHR miss cycles
system.cpu.icache.overall_mshr_miss_rate::.cpu.inst     0.000015                       # mshr miss rate for overall accesses
system.cpu.icache.overall_mshr_miss_rate::total     0.000015                       # mshr miss rate for overall accesses
system.cpu.icache.overall_mshr_misses::.cpu.inst          646                       # number of overall MSHR misses
system.cpu.icache.overall_mshr_misses::total          646                       # number of overall MSHR misses
system.cpu.icache.pwrStateResidencyTicks::UNDEFINED 704096840000                       # Cumulative time (in ticks) in various power states
system.cpu.icache.replacements                    248                       # number of replacements
system.cpu.icache.tags.age_task_id_blocks_1024::4          398                       # Occupied blocks per task id
system.cpu.icache.tags.avg_refs          65644.876161                       # Average number of references to valid blocks.
system.cpu.icache.tags.data_accesses         84813826                       # Number of data accesses
system.cpu.icache.tags.occ_blocks::.cpu.inst   360.535884                       # Average occupied blocks per requestor
system.cpu.icache.tags.occ_percent::.cpu.inst     0.704172                       # Average percentage of cache occupancy
system.cpu.icache.tags.occ_percent::total     0.704172                       # Average percentage of cache occupancy
system.cpu.icache.tags.occ_task_id_blocks::1024          398                       # Occupied blocks per task id
system.cpu.icache.tags.occ_task_id_percent::1024     0.777344                       # Percentage of cache occupancy per task id
system.cpu.icache.tags.pwrStateResidencyTicks::UNDEFINED 704096840000                       # Cumulative time (in ticks) in various power states
system.cpu.icache.tags.sampled_refs               646                       # Sample count of references to valid blocks.
system.cpu.icache.tags.tag_accesses          84813826                       # Number of tag accesses
system.cpu.icache.tags.tagsinuse           360.535884                       # Cycle average of tags in use
system.cpu.icache.tags.total_refs            42406590                       # Total number of references to valid blocks.
system.cpu.icache.tags.warmup_cycle            108000                       # Cycle when the warmup percentage was hit.
system.cpu.icache.writebacks::.writebacks          248                       # number of writebacks
system.cpu.icache.writebacks::total               248                       # number of writebacks
system.cpu.idleCycles                       451330180                       # Total number of cycles that the object has spent stopped
system.cpu.ipc                               0.142026                       # IPC: instructions per cycle
system.cpu.istage2_mmu.stage2_tlb.accesses            0                       # DTB accesses
system.cpu.istage2_mmu.stage2_tlb.align_faults            0                       # Number of TLB faults due to alignment restrictions
system.cpu.istage2_mmu.stage2_tlb.domain_faults            0                       # Number of TLB faults due to domain restrictions
system.cpu.istage2_mmu.stage2_tlb.flush_entries            0                       # Number of entries that have been flushed from TLB
system.cpu.istage2_mmu.stage2_tlb.flush_tlb            0                       # Number of times complete TLB was flushed
system.cpu.istage2_mmu.stage2_tlb.flush_tlb_asid            0                       # Number of times TLB was flushed by ASID
system.cpu.istage2_mmu.stage2_tlb.flush_tlb_mva            0                       # Number of times TLB was flushed by MVA
system.cpu.istage2_mmu.stage2_tlb.flush_tlb_mva_asid            0                       # Number of times TLB was flushed by MVA & ASID
system.cpu.istage2_mmu.stage2_tlb.hits              0                       # DTB hits
system.cpu.istage2_mmu.stage2_tlb.inst_accesses            0                       # ITB inst accesses
system.cpu.istage2_mmu.stage2_tlb.inst_hits            0                       # ITB inst hits
system.cpu.istage2_mmu.stage2_tlb.inst_misses            0                       # ITB inst misses
system.cpu.istage2_mmu.stage2_tlb.misses            0                       # DTB misses
system.cpu.istage2_mmu.stage2_tlb.perms_faults            0                       # Number of TLB faults due to permissions restrictions
system.cpu.istage2_mmu.stage2_tlb.prefetch_faults            0                       # Number of TLB faults due to prefetch
system.cpu.istage2_mmu.stage2_tlb.read_accesses            0                       # DTB read accesses
system.cpu.istage2_mmu.stage2_tlb.read_hits            0                       # DTB read hits
system.cpu.istage2_mmu.stage2_tlb.read_misses            0                       # DTB read misses
system.cpu.istage2_mmu.stage2_tlb.walker.pwrStateResidencyTicks::UNDEFINED 704096840000                       # Cumulative time (in ticks) in various power states
system.cpu.istage2_mmu.stage2_tlb.walker.walkRequestOrigin_Requested::Data            0                       # Table walker requests started/completed, data/inst
system.cpu.istage2_mmu.stage2_tlb.walker.walkRequestOrigin_Requested::Inst            0                       # Table walker requests started/completed, data/inst
system.cpu.istage2_mmu.stage2_tlb.walker.walkRequestOrigin_Requested::total            0                       # Table walker requests started/completed, data/inst
system.cpu.istage2_mmu.stage2_tlb.walker.walkRequestOrigin_Completed::Data            0                       # Table walker requests started/completed, data/inst
system.cpu.istage2_mmu.stage2_tlb.walker.walkRequestOrigin_Completed::Inst            0                       # Table walker requests started/completed, data/inst
system.cpu.istage2_mmu.stage2_tlb.walker.walkRequestOrigin_Completed::total            0                       # Table walker requests started/completed, data/inst
system.cpu.istage2_mmu.stage2_tlb.walker.walkRequestOrigin::total            0                       # Table walker requests started/completed, data/inst
system.cpu.istage2_mmu.stage2_tlb.walker.walks            0                       # Table walker walks requested
system.cpu.istage2_mmu.stage2_tlb.write_accesses            0                       # DTB write accesses
system.cpu.istage2_mmu.stage2_tlb.write_hits            0                       # DTB write hits
system.cpu.istage2_mmu.stage2_tlb.write_misses            0                       # DTB write misses
system.cpu.itb.accesses                             0                       # DTB accesses
system.cpu.itb.align_faults                         0                       # Number of TLB faults due to alignment restrictions
system.cpu.itb.domain_faults                        0                       # Number of TLB faults due to domain restrictions
system.cpu.itb.flush_entries                        0                       # Number of entries that have been flushed from TLB
system.cpu.itb.flush_tlb                            0                       # Number of times complete TLB was flushed
system.cpu.itb.flush_tlb_asid                       0                       # Number of times TLB was flushed by ASID
system.cpu.itb.flush_tlb_mva                        0                       # Number of times TLB was flushed by MVA
system.cpu.itb.flush_tlb_mva_asid                   0                       # Number of times TLB was flushed by MVA & ASID
system.cpu.itb.hits                                 0                       # DTB hits
system.cpu.itb.inst_accesses                        0                       # ITB inst accesses
system.cpu.itb.inst_hits                            0                       # ITB inst hits
system.cpu.itb.inst_misses                          0                       # ITB inst misses
system.cpu.itb.misses                               0                       # DTB misses
system.cpu.itb.perms_faults                         0                       # Number of TLB faults due to permissions restrictions
system.cpu.itb.prefetch_faults                      0                       # Number of TLB faults due to prefetch
system.cpu.itb.read_accesses                        0                       # DTB read accesses
system.cpu.itb.read_hits                            0                       # DTB read hits
system.cpu.itb.read_misses                          0                       # DTB read misses
system.cpu.itb.walker.pwrStateResidencyTicks::UNDEFINED 704096840000                       # Cumulative time (in ticks) in various power states
system.cpu.itb.walker.walkRequestOrigin_Requested::Data            0                       # Table walker requests started/completed, data/inst
system.cpu.itb.walker.walkRequestOrigin_Requested::Inst            0                       # Table walker requests started/completed, data/inst
system.cpu.itb.walker.walkRequestOrigin_Requested::total            0                       # Table walker requests started/completed, data/inst
system.cpu.itb.walker.walkRequestOrigin_Completed::Data            0                       # Table walker requests started/completed, data/inst
system.cpu.itb.walker.walkRequestOrigin_Completed::Inst            0                       # Table walker requests started/completed, data/inst
system.cpu.itb.walker.walkRequestOrigin_Completed::total            0                       # Table walker requests started/completed, data/inst
system.cpu.itb.walker.walkRequestOrigin::total            0                       # Table walker requests started/completed, data/inst
system.cpu.itb.walker.walks                         0                       # Table walker walks requested
system.cpu.itb.write_accesses                       0                       # DTB write accesses
system.cpu.itb.write_hits                           0                       # DTB write hits
system.cpu.itb.write_misses                         0                       # DTB write misses
system.cpu.numCycles                        704096840                       # number of cpu cycles simulated
system.cpu.numFetchSuspends                         0                       # Number of times Execute suspended instruction fetching
system.cpu.numWorkItemsCompleted                    0                       # number of work items this cpu completed
system.cpu.numWorkItemsStarted                      0                       # number of work items this cpu started
system.cpu.op_class_0::No_OpClass                   0      0.00%      0.00% # Class of committed instruction
system.cpu.op_class_0::IntAlu                97640233     53.01%     53.01% # Class of committed instruction
system.cpu.op_class_0::IntMult                 114699      0.06%     53.08% # Class of committed instruction
system.cpu.op_class_0::IntDiv                       0      0.00%     53.08% # Class of committed instruction
system.cpu.op_class_0::FloatAdd                     0      0.00%     53.08% # Class of committed instruction
system.cpu.op_class_0::FloatCmp                     0      0.00%     53.08% # Class of committed instruction
system.cpu.op_class_0::FloatCvt                     0      0.00%     53.08% # Class of committed instruction
system.cpu.op_class_0::FloatMult                    0      0.00%     53.08% # Class of committed instruction
system.cpu.op_class_0::FloatMultAcc                 0      0.00%     53.08% # Class of committed instruction
system.cpu.op_class_0::FloatDiv                     0      0.00%     53.08% # Class of committed instruction
system.cpu.op_class_0::FloatMisc                    0      0.00%     53.08% # Class of committed instruction
system.cpu.op_class_0::FloatSqrt                    0      0.00%     53.08% # Class of committed instruction
system.cpu.op_class_0::SimdAdd                      8      0.00%     53.08% # Class of committed instruction
system.cpu.op_class_0::SimdAddAcc                   0      0.00%     53.08% # Class of committed instruction
system.cpu.op_class_0::SimdAlu                      8      0.00%     53.08% # Class of committed instruction
system.cpu.op_class_0::SimdCmp                      6      0.00%     53.08% # Class of committed instruction
system.cpu.op_class_0::SimdCvt                      0      0.00%     53.08% # Class of committed instruction
system.cpu.op_class_0::SimdMisc                     1      0.00%     53.08% # Class of committed instruction
system.cpu.op_class_0::SimdMult                     0      0.00%     53.08% # Class of committed instruction
system.cpu.op_class_0::SimdMultAcc                  0      0.00%     53.08% # Class of committed instruction
system.cpu.op_class_0::SimdShift                    0      0.00%     53.08% # Class of committed instruction
system.cpu.op_class_0::SimdShiftAcc                 0      0.00%     53.08% # Class of committed instruction
system.cpu.op_class_0::SimdDiv                      0      0.00%     53.08% # Class of committed instruction
system.cpu.op_class_0::SimdSqrt                     0      0.00%     53.08% # Class of committed instruction
system.cpu.op_class_0::SimdFloatAdd                 0      0.00%     53.08% # Class of committed instruction
system.cpu.op_class_0::SimdFloatAlu                 0      0.00%     53.08% # Class of committed instruction
system.cpu.op_class_0::SimdFloatCmp                 0      0.00%     53.08% # Class of committed instruction
system.cpu.op_class_0::SimdFloatCvt                 0      0.00%     53.08% # Class of committed instruction
system.cpu.op_class_0::SimdFloatDiv                 0      0.00%     53.08% # Class of committed instruction
system.cpu.op_class_0::SimdFloatMisc                9      0.00%     53.08% # Class of committed instruction
system.cpu.op_class_0::SimdFloatMult                0      0.00%     53.08% # Class of committed instruction
system.cpu.op_class_0::SimdFloatMultAcc             0      0.00%     53.08% # Class of committed instruction
system.cpu.op_class_0::SimdFloatSqrt                0      0.00%     53.08% # Class of committed instruction
system.cpu.op_class_0::SimdReduceAdd                0      0.00%     53.08% # Class of committed instruction
system.cpu.op_class_0::SimdReduceAlu                0      0.00%     53.08% # Class of committed instruction
system.cpu.op_class_0::SimdReduceCmp                0      0.00%     53.08% # Class of committed instruction
system.cpu.op_class_0::SimdFloatReduceAdd            0      0.00%     53.08% # Class of committed instruction
system.cpu.op_class_0::SimdFloatReduceCmp            0      0.00%     53.08% # Class of committed instruction
system.cpu.op_class_0::SimdAes                      0      0.00%     53.08% # Class of committed instruction
system.cpu.op_class_0::SimdAesMix                   0      0.00%     53.08% # Class of committed instruction
system.cpu.op_class_0::SimdSha1Hash                 0      0.00%     53.08% # Class of committed instruction
system.cpu.op_class_0::SimdSha1Hash2                0      0.00%     53.08% # Class of committed instruction
system.cpu.op_class_0::SimdSha256Hash               0      0.00%     53.08% # Class of committed instruction
system.cpu.op_class_0::SimdSha256Hash2              0      0.00%     53.08% # Class of committed instruction
system.cpu.op_class_0::SimdShaSigma2                0      0.00%     53.08% # Class of committed instruction
system.cpu.op_class_0::SimdShaSigma3                0      0.00%     53.08% # Class of committed instruction
system.cpu.op_class_0::SimdPredAlu                  0      0.00%     53.08% # Class of committed instruction
system.cpu.op_class_0::MemRead                2082603      1.13%     54.21% # Class of committed instruction
system.cpu.op_class_0::MemWrite              84340002     45.79%    100.00% # Class of committed instruction
system.cpu.op_class_0::FloatMemRead                 0      0.00%    100.00% # Class of committed instruction
system.cpu.op_class_0::FloatMemWrite                0      0.00%    100.00% # Class of committed instruction
system.cpu.op_class_0::IprAccess                    0      0.00%    100.00% # Class of committed instruction
system.cpu.op_class_0::InstPrefetch                 0      0.00%    100.00% # Class of committed instruction
system.cpu.op_class_0::total                184177569                       # Class of committed instruction
system.cpu.pwrStateResidencyTicks::ON    704096840000                       # Cumulative time (in ticks) in various power states
system.cpu.tickCycles                       252766660                       # Number of cycles that the object actually ticked
system.cpu.workload.numSyscalls                    18                       # Number of system calls
system.cpu_clk_domain.clock                      1000                       # Clock period in ticks
system.cpu_voltage_domain.voltage                   1                       # Voltage in Volts
system.l2.ReadCleanReq_accesses::.cpu.inst          646                       # number of ReadCleanReq accesses(hits+misses)
system.l2.ReadCleanReq_accesses::total            646                       # number of ReadCleanReq accesses(hits+misses)
system.l2.ReadCleanReq_avg_miss_latency::.cpu.inst 100024.137931                       # average ReadCleanReq miss latency
system.l2.ReadCleanReq_avg_miss_latency::total 100024.137931                       # average ReadCleanReq miss latency
system.l2.ReadCleanReq_avg_mshr_miss_latency::.cpu.inst 80064.124783                       # average ReadCleanReq mshr miss latency
system.l2.ReadCleanReq_avg_mshr_miss_latency::total 80064.124783                       # average ReadCleanReq mshr miss latency
system.l2.ReadCleanReq_hits::.cpu.inst             66                       # number of ReadCleanReq hits
system.l2.ReadCleanReq_hits::total                 66                       # number of ReadCleanReq hits
system.l2.ReadCleanReq_miss_latency::.cpu.inst     58014000                       # number of ReadCleanReq miss cycles
system.l2.ReadCleanReq_miss_latency::total     58014000                       # number of ReadCleanReq miss cycles
system.l2.ReadCleanReq_miss_rate::.cpu.inst     0.897833                       # miss rate for ReadCleanReq accesses
system.l2.ReadCleanReq_miss_rate::total      0.897833                       # miss rate for ReadCleanReq accesses
system.l2.ReadCleanReq_misses::.cpu.inst          580                       # number of ReadCleanReq misses
system.l2.ReadCleanReq_misses::total              580                       # number of ReadCleanReq misses
system.l2.ReadCleanReq_mshr_hits::.cpu.inst            3                       # number of ReadCleanReq MSHR hits
system.l2.ReadCleanReq_mshr_hits::total             3                       # number of ReadCleanReq MSHR hits
system.l2.ReadCleanReq_mshr_miss_latency::.cpu.inst     46197000                       # number of ReadCleanReq MSHR miss cycles
system.l2.ReadCleanReq_mshr_miss_latency::total     46197000                       # number of ReadCleanReq MSHR miss cycles
system.l2.ReadCleanReq_mshr_miss_rate::.cpu.inst     0.893189                       # mshr miss rate for ReadCleanReq accesses
system.l2.ReadCleanReq_mshr_miss_rate::total     0.893189                       # mshr miss rate for ReadCleanReq accesses
system.l2.ReadCleanReq_mshr_misses::.cpu.inst          577                       # number of ReadCleanReq MSHR misses
system.l2.ReadCleanReq_mshr_misses::total          577                       # number of ReadCleanReq MSHR misses
system.l2.ReadExReq_accesses::.cpu.data       5263151                       # number of ReadExReq accesses(hits+misses)
system.l2.ReadExReq_accesses::total           5263151                       # number of ReadExReq accesses(hits+misses)
system.l2.ReadExReq_avg_miss_latency::.cpu.data 99711.060059                       # average ReadExReq miss latency
system.l2.ReadExReq_avg_miss_latency::total 99711.060059                       # average ReadExReq miss latency
system.l2.ReadExReq_avg_mshr_miss_latency::.cpu.data 79711.060059                       # average ReadExReq mshr miss latency
system.l2.ReadExReq_avg_mshr_miss_latency::total 79711.060059                       # average ReadExReq mshr miss latency
system.l2.ReadExReq_hits::.cpu.data                78                       # number of ReadExReq hits
system.l2.ReadExReq_hits::total                    78                       # number of ReadExReq hits
system.l2.ReadExReq_miss_latency::.cpu.data 524786588000                       # number of ReadExReq miss cycles
system.l2.ReadExReq_miss_latency::total  524786588000                       # number of ReadExReq miss cycles
system.l2.ReadExReq_miss_rate::.cpu.data     0.999985                       # miss rate for ReadExReq accesses
system.l2.ReadExReq_miss_rate::total         0.999985                       # miss rate for ReadExReq accesses
system.l2.ReadExReq_misses::.cpu.data         5263073                       # number of ReadExReq misses
system.l2.ReadExReq_misses::total             5263073                       # number of ReadExReq misses
system.l2.ReadExReq_mshr_miss_latency::.cpu.data 419525128000                       # number of ReadExReq MSHR miss cycles
system.l2.ReadExReq_mshr_miss_latency::total 419525128000                       # number of ReadExReq MSHR miss cycles
system.l2.ReadExReq_mshr_miss_rate::.cpu.data     0.999985                       # mshr miss rate for ReadExReq accesses
system.l2.ReadExReq_mshr_miss_rate::total     0.999985                       # mshr miss rate for ReadExReq accesses
system.l2.ReadExReq_mshr_misses::.cpu.data      5263073                       # number of ReadExReq MSHR misses
system.l2.ReadExReq_mshr_misses::total        5263073                       # number of ReadExReq MSHR misses
system.l2.ReadSharedReq_accesses::.cpu.data          404                       # number of ReadSharedReq accesses(hits+misses)
system.l2.ReadSharedReq_accesses::total           404                       # number of ReadSharedReq accesses(hits+misses)
system.l2.ReadSharedReq_avg_miss_latency::.cpu.data 106505.747126                       # average ReadSharedReq miss latency
system.l2.ReadSharedReq_avg_miss_latency::total 106505.747126                       # average ReadSharedReq miss latency
system.l2.ReadSharedReq_avg_mshr_miss_latency::.cpu.data 86875.486381                       # average ReadSharedReq mshr miss latency
system.l2.ReadSharedReq_avg_mshr_miss_latency::total 86875.486381                       # average ReadSharedReq mshr miss latency
system.l2.ReadSharedReq_hits::.cpu.data           143                       # number of ReadSharedReq hits
system.l2.ReadSharedReq_hits::total               143                       # number of ReadSharedReq hits
system.l2.ReadSharedReq_miss_latency::.cpu.data     27798000                       # number of ReadSharedReq miss cycles
system.l2.ReadSharedReq_miss_latency::total     27798000                       # number of ReadSharedReq miss cycles
system.l2.ReadSharedReq_miss_rate::.cpu.data     0.646040                       # miss rate for ReadSharedReq accesses
system.l2.ReadSharedReq_miss_rate::total     0.646040                       # miss rate for ReadSharedReq accesses
system.l2.ReadSharedReq_misses::.cpu.data          261                       # number of ReadSharedReq misses
system.l2.ReadSharedReq_misses::total             261                       # number of ReadSharedReq misses
system.l2.ReadSharedReq_mshr_hits::.cpu.data            4                       # number of ReadSharedReq MSHR hits
system.l2.ReadSharedReq_mshr_hits::total            4                       # number of ReadSharedReq MSHR hits
system.l2.ReadSharedReq_mshr_miss_latency::.cpu.data     22327000                       # number of ReadSharedReq MSHR miss cycles
system.l2.ReadSharedReq_mshr_miss_latency::total     22327000                       # number of ReadSharedReq MSHR miss cycles
system.l2.ReadSharedReq_mshr_miss_rate::.cpu.data     0.636139                       # mshr miss rate for ReadSharedReq accesses
system.l2.ReadSharedReq_mshr_miss_rate::total     0.636139                       # mshr miss rate for ReadSharedReq accesses
system.l2.ReadSharedReq_mshr_misses::.cpu.data          257                       # number of ReadSharedReq MSHR misses
system.l2.ReadSharedReq_mshr_misses::total          257                       # number of ReadSharedReq MSHR misses
system.l2.WritebackClean_accesses::.writebacks          244                       # number of WritebackClean accesses(hits+misses)
system.l2.WritebackClean_accesses::total          244                       # number of WritebackClean accesses(hits+misses)
system.l2.WritebackClean_hits::.writebacks          244                       # number of WritebackClean hits
system.l2.WritebackClean_hits::total              244                       # number of WritebackClean hits
system.l2.WritebackDirty_accesses::.writebacks      5262169                       # number of WritebackDirty accesses(hits+misses)
system.l2.WritebackDirty_accesses::total      5262169                       # number of WritebackDirty accesses(hits+misses)
system.l2.WritebackDirty_hits::.writebacks      5262169                       # number of WritebackDirty hits
system.l2.WritebackDirty_hits::total          5262169                       # number of WritebackDirty hits
system.l2.avg_blocked_cycles::no_mshrs            nan                       # average number of cycles each access was blocked
system.l2.avg_blocked_cycles::no_targets          nan                       # average number of cycles each access was blocked
system.l2.blocked::no_mshrs                         0                       # number of cycles access was blocked
system.l2.blocked::no_targets                       0                       # number of cycles access was blocked
system.l2.blocked_cycles::no_mshrs                  0                       # number of cycles access was blocked
system.l2.blocked_cycles::no_targets                0                       # number of cycles access was blocked
system.l2.demand_accesses::.cpu.inst              646                       # number of demand (read+write) accesses
system.l2.demand_accesses::.cpu.data          5263555                       # number of demand (read+write) accesses
system.l2.demand_accesses::total              5264201                       # number of demand (read+write) accesses
system.l2.demand_avg_miss_latency::.cpu.inst 100024.137931                       # average overall miss latency
system.l2.demand_avg_miss_latency::.cpu.data 99711.396997                       # average overall miss latency
system.l2.demand_avg_miss_latency::total 99711.431456                       # average overall miss latency
system.l2.demand_avg_mshr_miss_latency::.cpu.inst 80064.124783                       # average overall mshr miss latency
system.l2.demand_avg_mshr_miss_latency::.cpu.data 79711.409887                       # average overall mshr miss latency
system.l2.demand_avg_mshr_miss_latency::total 79711.448550                       # average overall mshr miss latency
system.l2.demand_hits::.cpu.inst                   66                       # number of demand (read+write) hits
system.l2.demand_hits::.cpu.data                  221                       # number of demand (read+write) hits
system.l2.demand_hits::total                      287                       # number of demand (read+write) hits
system.l2.demand_miss_latency::.cpu.inst     58014000                       # number of demand (read+write) miss cycles
system.l2.demand_miss_latency::.cpu.data 524814386000                       # number of demand (read+write) miss cycles
system.l2.demand_miss_latency::total     524872400000                       # number of demand (read+write) miss cycles
system.l2.demand_miss_rate::.cpu.inst        0.897833                       # miss rate for demand accesses
system.l2.demand_miss_rate::.cpu.data        0.999958                       # miss rate for demand accesses
system.l2.demand_miss_rate::total            0.999945                       # miss rate for demand accesses
system.l2.demand_misses::.cpu.inst                580                       # number of demand (read+write) misses
system.l2.demand_misses::.cpu.data            5263334                       # number of demand (read+write) misses
system.l2.demand_misses::total                5263914                       # number of demand (read+write) misses
system.l2.demand_mshr_hits::.cpu.inst               3                       # number of demand (read+write) MSHR hits
system.l2.demand_mshr_hits::.cpu.data               4                       # number of demand (read+write) MSHR hits
system.l2.demand_mshr_hits::total                   7                       # number of demand (read+write) MSHR hits
system.l2.demand_mshr_miss_latency::.cpu.inst     46197000                       # number of demand (read+write) MSHR miss cycles
system.l2.demand_mshr_miss_latency::.cpu.data 419547455000                       # number of demand (read+write) MSHR miss cycles
system.l2.demand_mshr_miss_latency::total 419593652000                       # number of demand (read+write) MSHR miss cycles
system.l2.demand_mshr_miss_rate::.cpu.inst     0.893189                       # mshr miss rate for demand accesses
system.l2.demand_mshr_miss_rate::.cpu.data     0.999957                       # mshr miss rate for demand accesses
system.l2.demand_mshr_miss_rate::total       0.999944                       # mshr miss rate for demand accesses
system.l2.demand_mshr_misses::.cpu.inst           577                       # number of demand (read+write) MSHR misses
system.l2.demand_mshr_misses::.cpu.data       5263330                       # number of demand (read+write) MSHR misses
system.l2.demand_mshr_misses::total           5263907                       # number of demand (read+write) MSHR misses
system.l2.overall_accesses::.cpu.inst             646                       # number of overall (read+write) accesses
system.l2.overall_accesses::.cpu.data         5263555                       # number of overall (read+write) accesses
system.l2.overall_accesses::total             5264201                       # number of overall (read+write) accesses
system.l2.overall_avg_miss_latency::.cpu.inst 100024.137931                       # average overall miss latency
system.l2.overall_avg_miss_latency::.cpu.data 99711.396997                       # average overall miss latency
system.l2.overall_avg_miss_latency::total 99711.431456                       # average overall miss latency
system.l2.overall_avg_mshr_miss_latency::.cpu.inst 80064.124783                       # average overall mshr miss latency
system.l2.overall_avg_mshr_miss_latency::.cpu.data 79711.409887                       # average overall mshr miss latency
system.l2.overall_avg_mshr_miss_latency::total 79711.448550                       # average overall mshr miss latency
system.l2.overall_hits::.cpu.inst                  66                       # number of overall hits
system.l2.overall_hits::.cpu.data                 221                       # number of overall hits
system.l2.overall_hits::total                     287                       # number of overall hits
system.l2.overall_miss_latency::.cpu.inst     58014000                       # number of overall miss cycles
system.l2.overall_miss_latency::.cpu.data 524814386000                       # number of overall miss cycles
system.l2.overall_miss_latency::total    524872400000                       # number of overall miss cycles
system.l2.overall_miss_rate::.cpu.inst       0.897833                       # miss rate for overall accesses
system.l2.overall_miss_rate::.cpu.data       0.999958                       # miss rate for overall accesses
system.l2.overall_miss_rate::total           0.999945                       # miss rate for overall accesses
system.l2.overall_misses::.cpu.inst               580                       # number of overall misses
system.l2.overall_misses::.cpu.data           5263334                       # number of overall misses
system.l2.overall_misses::total               5263914                       # number of overall misses
system.l2.overall_mshr_hits::.cpu.inst              3                       # number of overall MSHR hits
system.l2.overall_mshr_hits::.cpu.data              4                       # number of overall MSHR hits
system.l2.overall_mshr_hits::total                  7                       # number of overall MSHR hits
system.l2.overall_mshr_miss_latency::.cpu.inst     46197000                       # number of overall MSHR miss cycles
system.l2.overall_mshr_miss_latency::.cpu.data 419547455000                       # number of overall MSHR miss cycles
system.l2.overall_mshr_miss_latency::total 419593652000                       # number of overall MSHR miss cycles
system.l2.overall_mshr_miss_rate::.cpu.inst     0.893189                       # mshr miss rate for overall accesses
system.l2.overall_mshr_miss_rate::.cpu.data     0.999957                       # mshr miss rate for overall accesses
system.l2.overall_mshr_miss_rate::total      0.999944                       # mshr miss rate for overall accesses
system.l2.overall_mshr_misses::.cpu.inst          577                       # number of overall MSHR misses
system.l2.overall_mshr_misses::.cpu.data      5263330                       # number of overall MSHR misses
system.l2.overall_mshr_misses::total          5263907                       # number of overall MSHR misses
system.l2.pwrStateResidencyTicks::UNDEFINED 704096840000                       # Cumulative time (in ticks) in various power states
system.l2.replacements                        5231249                       # number of replacements
system.l2.tags.age_task_id_blocks_1024::0           74                       # Occupied blocks per task id
system.l2.tags.age_task_id_blocks_1024::1          679                       # Occupied blocks per task id
system.l2.tags.age_task_id_blocks_1024::2         6781                       # Occupied blocks per task id
system.l2.tags.age_task_id_blocks_1024::3        25234                       # Occupied blocks per task id
system.l2.tags.avg_refs                      1.999778                       # Average number of references to valid blocks.
system.l2.tags.data_accesses                 89479009                       # Number of data accesses
system.l2.tags.occ_blocks::.writebacks       0.627290                       # Average occupied blocks per requestor
system.l2.tags.occ_blocks::.cpu.inst         5.882293                       # Average occupied blocks per requestor
system.l2.tags.occ_blocks::.cpu.data     32422.650974                       # Average occupied blocks per requestor
system.l2.tags.occ_percent::.writebacks      0.000019                       # Average percentage of cache occupancy
system.l2.tags.occ_percent::.cpu.inst        0.000180                       # Average percentage of cache occupancy
system.l2.tags.occ_percent::.cpu.data        0.989461                       # Average percentage of cache occupancy
system.l2.tags.occ_percent::total            0.989659                       # Average percentage of cache occupancy
system.l2.tags.occ_task_id_blocks::1024         32768                       # Occupied blocks per task id
system.l2.tags.occ_task_id_percent::1024            1                       # Percentage of cache occupancy per task id
system.l2.tags.pwrStateResidencyTicks::UNDEFINED 704096840000                       # Cumulative time (in ticks) in various power states
system.l2.tags.sampled_refs                   5264017                       # Sample count of references to valid blocks.
system.l2.tags.tag_accesses                  89479009                       # Number of tag accesses
system.l2.tags.tagsinuse                 32429.160557                       # Cycle average of tags in use
system.l2.tags.total_refs                    10526867                       # Total number of references to valid blocks.
system.l2.tags.warmup_cycle                     87000                       # Cycle when the warmup percentage was hit.
system.l2.writebacks::.writebacks             5230333                       # number of writebacks
system.l2.writebacks::total                   5230333                       # number of writebacks
system.mem_ctrls.avgBusLat                    5000.00                       # Average bus latency per DRAM burst
system.mem_ctrls.avgGap                      67093.64                       # Average gap between requests
system.mem_ctrls.avgMemAccLat                28450.06                       # Average memory access latency per DRAM burst
system.mem_ctrls.avgPriority_.writebacks::samples   5230333.00                       # Average QoS priority value for accepted requests
system.mem_ctrls.avgPriority_.cpu.inst::samples       577.00                       # Average QoS priority value for accepted requests
system.mem_ctrls.avgPriority_.cpu.data::samples   5263330.00                       # Average QoS priority value for accepted requests
system.mem_ctrls.avgQLat                      9700.06                       # Average queueing delay per DRAM burst
system.mem_ctrls.avgRdBW                       478.47                       # Average DRAM read bandwidth in MiByte/s
system.mem_ctrls.avgRdBWSys                    478.47                       # Average system read bandwidth in MiByte/s
system.mem_ctrls.avgRdQLen                       1.00                       # Average read queue length when enqueuing
system.mem_ctrls.avgWrBW                       475.42                       # Average achieved write bandwidth in MiByte/s
system.mem_ctrls.avgWrBWSys                    475.42                       # Average system write bandwidth in MiByte/s
system.mem_ctrls.avgWrQLen                      25.46                       # Average write queue length when enqueuing
system.mem_ctrls.busUtil                         7.45                       # Data bus utilization in percentage
system.mem_ctrls.busUtilRead                     3.74                       # Data bus utilization in percentage for reads
system.mem_ctrls.busUtilWrite                    3.71                       # Data bus utilization in percentage for writes
system.mem_ctrls.bw_inst_read::.cpu.inst        52447                       # Instruction read bandwidth from this memory (bytes/s)
system.mem_ctrls.bw_inst_read::total            52447                       # Instruction read bandwidth from this memory (bytes/s)
system.mem_ctrls.bw_read::.cpu.inst             52447                       # Total read bandwidth from this memory (bytes/s)
system.mem_ctrls.bw_read::.cpu.data         478418736                       # Total read bandwidth from this memory (bytes/s)
system.mem_ctrls.bw_read::total             478471183                       # Total read bandwidth from this memory (bytes/s)
system.mem_ctrls.bw_total::.writebacks      475419421                       # Total bandwidth to/from this memory (bytes/s)
system.mem_ctrls.bw_total::.cpu.inst            52447                       # Total bandwidth to/from this memory (bytes/s)
system.mem_ctrls.bw_total::.cpu.data        478418736                       # Total bandwidth to/from this memory (bytes/s)
system.mem_ctrls.bw_total::total            953890604                       # Total bandwidth to/from this memory (bytes/s)
system.mem_ctrls.bw_write::.writebacks      475419421                       # Write bandwidth from this memory (bytes/s)
system.mem_ctrls.bw_write::total            475419421                       # Write bandwidth from this memory (bytes/s)
system.mem_ctrls.bytesPerActivate::samples       810307                       # Bytes accessed per row activation
system.mem_ctrls.bytesPerActivate::mean    828.858712                       # Bytes accessed per row activation
system.mem_ctrls.bytesPerActivate::gmean   703.474771                       # Bytes accessed per row activation
system.mem_ctrls.bytesPerActivate::stdev   314.064901                       # Bytes accessed per row activation
system.mem_ctrls.bytesPerActivate::0-127        38344      4.73%      4.73% # Bytes accessed per row activation
system.mem_ctrls.bytesPerActivate::128-255        30724      3.79%      8.52% # Bytes accessed per row activation
system.mem_ctrls.bytesPerActivate::256-383        44037      5.43%     13.96% # Bytes accessed per row activation
system.mem_ctrls.bytesPerActivate::384-511        35924      4.43%     18.39% # Bytes accessed per row activation
system.mem_ctrls.bytesPerActivate::512-639        24822      3.06%     21.45% # Bytes accessed per row activation
system.mem_ctrls.bytesPerActivate::640-767        30736      3.79%     25.25% # Bytes accessed per row activation
system.mem_ctrls.bytesPerActivate::768-895        47934      5.92%     31.16% # Bytes accessed per row activation
system.mem_ctrls.bytesPerActivate::896-1023        53329      6.58%     37.74% # Bytes accessed per row activation
system.mem_ctrls.bytesPerActivate::1024-1151       504457     62.26%    100.00% # Bytes accessed per row activation
system.mem_ctrls.bytesPerActivate::total       810307                       # Bytes accessed per row activation
system.mem_ctrls.bytesReadDRAM              336890048                       # Total number of bytes read from DRAM
system.mem_ctrls.bytesReadSys               336890048                       # Total read bytes from the system interface side
system.mem_ctrls.bytesReadWrQ                       0                       # Total number of bytes read from write queue
system.mem_ctrls.bytesWritten               334740096                       # Total number of bytes written to DRAM
system.mem_ctrls.bytesWrittenSys            334741312                       # Total written bytes from the system interface side
system.mem_ctrls.bytes_inst_read::.cpu.inst        36928                       # Number of instructions bytes read from this memory
system.mem_ctrls.bytes_inst_read::total         36928                       # Number of instructions bytes read from this memory
system.mem_ctrls.bytes_read::.cpu.inst          36928                       # Number of bytes read from this memory
system.mem_ctrls.bytes_read::.cpu.data      336853120                       # Number of bytes read from this memory
system.mem_ctrls.bytes_read::total          336890048                       # Number of bytes read from this memory
system.mem_ctrls.bytes_written::.writebacks    334741312                       # Number of bytes written to this memory
system.mem_ctrls.bytes_written::total       334741312                       # Number of bytes written to this memory
[...]
system.mem_ctrls.wrQLenPdf::21                 326887                       # What write queue length does an incoming req see
system.mem_ctrls.wrQLenPdf::22                 326886                       # What write queue length does an incoming req see
system.mem_ctrls.wrQLenPdf::23                 326916                       # What write queue length does an incoming req see
system.mem_ctrls.wrQLenPdf::24                 326884                       # What write queue length does an incoming req see
system.mem_ctrls.wrQLenPdf::25                 326884                       # What write queue length does an incoming req see
system.mem_ctrls.wrQLenPdf::26                 326886                       # What write queue length does an incoming req see
system.mem_ctrls.wrQLenPdf::27                 326886                       # What write queue length does an incoming req see
system.mem_ctrls.wrQLenPdf::28                 326885                       # What write queue length does an incoming req see
system.mem_ctrls.wrQLenPdf::29                 326886                       # What write queue length does an incoming req see
system.mem_ctrls.wrQLenPdf::30                 326885                       # What write queue length does an incoming req see
system.mem_ctrls.wrQLenPdf::31                 326888                       # What write queue length does an incoming req see
system.mem_ctrls.wrQLenPdf::32                 326885                       # What write queue length does an incoming req see
system.mem_ctrls.wrQLenPdf::33                      0                       # What write queue length does an incoming req see
system.mem_ctrls.wrQLenPdf::34                      0                       # What write queue length does an incoming req see
system.mem_ctrls.wrQLenPdf::35                      0                       # What write queue length does an incoming req see
system.mem_ctrls.wrQLenPdf::36                      0                       # What write queue length does an incoming req see
system.mem_ctrls.wrQLenPdf::37                      0                       # What write queue length does an incoming req see
system.mem_ctrls.wrQLenPdf::38                      0                       # What write queue length does an incoming req see
system.mem_ctrls.wrQLenPdf::39                      0                       # What write queue length does an incoming req see
system.mem_ctrls.wrQLenPdf::40                      0                       # What write queue length does an incoming req see
system.mem_ctrls.wrQLenPdf::41                      0                       # What write queue length does an incoming req see
system.mem_ctrls.wrQLenPdf::42                      0                       # What write queue length does an incoming req see
system.mem_ctrls.wrQLenPdf::43                      0                       # What write queue length does an incoming req see
system.mem_ctrls.wrQLenPdf::44                      0                       # What write queue length does an incoming req see
system.mem_ctrls.wrQLenPdf::45                      0                       # What write queue length does an incoming req see
system.mem_ctrls.wrQLenPdf::46                      0                       # What write queue length does an incoming req see
system.mem_ctrls.wrQLenPdf::47                      0                       # What write queue length does an incoming req see
system.mem_ctrls.wrQLenPdf::48                      0                       # What write queue length does an incoming req see
system.mem_ctrls.wrQLenPdf::49                      0                       # What write queue length does an incoming req see
system.mem_ctrls.wrQLenPdf::50                      0                       # What write queue length does an incoming req see
system.mem_ctrls.wrQLenPdf::51                      0                       # What write queue length does an incoming req see
system.mem_ctrls.wrQLenPdf::52                      0                       # What write queue length does an incoming req see
system.mem_ctrls.wrQLenPdf::53                      0                       # What write queue length does an incoming req see
system.mem_ctrls.wrQLenPdf::54                      0                       # What write queue length does an incoming req see
system.mem_ctrls.wrQLenPdf::55                      0                       # What write queue length does an incoming req see
system.mem_ctrls.wrQLenPdf::56                      0                       # What write queue length does an incoming req see
system.mem_ctrls.wrQLenPdf::57                      0                       # What write queue length does an incoming req see
system.mem_ctrls.wrQLenPdf::58                      0                       # What write queue length does an incoming req see
system.mem_ctrls.wrQLenPdf::59                      0                       # What write queue length does an incoming req see
system.mem_ctrls.wrQLenPdf::60                      0                       # What write queue length does an incoming req see
system.mem_ctrls.wrQLenPdf::61                      0                       # What write queue length does an incoming req see
system.mem_ctrls.wrQLenPdf::62                      0                       # What write queue length does an incoming req see
system.mem_ctrls.wrQLenPdf::63                      0                       # What write queue length does an incoming req see
system.mem_ctrls.writeBursts                  5230333                       # Number of DRAM write bursts, including those merged in the write queue
system.mem_ctrls.writePktSize::0                    0                       # Write request sizes (log2)
system.mem_ctrls.writePktSize::1                    0                       # Write request sizes (log2)
system.mem_ctrls.writePktSize::2                    0                       # Write request sizes (log2)
system.mem_ctrls.writePktSize::3                    0                       # Write request sizes (log2)
system.mem_ctrls.writePktSize::4                    0                       # Write request sizes (log2)
system.mem_ctrls.writePktSize::5                    0                       # Write request sizes (log2)
system.mem_ctrls.writePktSize::6              5230333                       # Write request sizes (log2)
system.mem_ctrls.writeReqs                    5230333                       # Number of write requests accepted
system.mem_ctrls.writeRowHitRate                93.09                       # Row buffer hit rate for writes
system.mem_ctrls.writeRowHits                 4868901                       # Number of row buffer hits during writes
system.mem_ctrls_0.actBackEnergy         165098475930                       # Energy for active background per rank (pJ)
system.mem_ctrls_0.actEnergy               2894034780                       # Energy for activate commands per rank (pJ)
system.mem_ctrls_0.actPowerDownEnergy               0                       # Energy for active power-down per rank (pJ)
system.mem_ctrls_0.averagePower            552.341783                       # Core power per rank (mW)
system.mem_ctrls_0.memoryStateTime::IDLE 336924498750                       # Time in different power states
system.mem_ctrls_0.memoryStateTime::REF   23511280000                       # Time in different power states
system.mem_ctrls_0.memoryStateTime::SREF            0                       # Time in different power states
system.mem_ctrls_0.memoryStateTime::PRE_PDN            0                       # Time in different power states
system.mem_ctrls_0.memoryStateTime::ACT  343661061250                       # Time in different power states
system.mem_ctrls_0.memoryStateTime::ACT_PDN            0                       # Time in different power states
system.mem_ctrls_0.preBackEnergy         131342891040                       # Energy for precharge background per rank (pJ)
system.mem_ctrls_0.preEnergy               1538212170                       # Energy for precharge commands per rank (pJ)
system.mem_ctrls_0.prePowerDownEnergy               0                       # Energy for precharge power-down per rank (pJ)
system.mem_ctrls_0.readEnergy             18794971860                       # Energy for read commands per rank (pJ)
system.mem_ctrls_0.refreshEnergy         55580665920.000008                       # Energy for refresh commands per rank (pJ)
system.mem_ctrls_0.selfRefreshEnergy                0                       # Energy for self refresh per rank (pJ)
system.mem_ctrls_0.totalEnergy           388902104280                       # Total energy per rank (pJ)
system.mem_ctrls_0.totalIdleTime                    0                       # Total Idle time Per DRAM Rank
system.mem_ctrls_0.writeEnergy            13652852580                       # Energy for write commands per rank (pJ)
system.mem_ctrls_1.actBackEnergy         165038186460                       # Energy for active background per rank (pJ)
system.mem_ctrls_1.actEnergy               2891564340                       # Energy for activate commands per rank (pJ)
system.mem_ctrls_1.actPowerDownEnergy               0                       # Energy for active power-down per rank (pJ)
system.mem_ctrls_1.averagePower            552.309951                       # Core power per rank (mW)
system.mem_ctrls_1.memoryStateTime::IDLE 337056677250                       # Time in different power states
system.mem_ctrls_1.memoryStateTime::REF   23511280000                       # Time in different power states
system.mem_ctrls_1.memoryStateTime::SREF            0                       # Time in different power states
system.mem_ctrls_1.memoryStateTime::PRE_PDN            0                       # Time in different power states
system.mem_ctrls_1.memoryStateTime::ACT  343528882750                       # Time in different power states
system.mem_ctrls_1.memoryStateTime::ACT_PDN            0                       # Time in different power states
system.mem_ctrls_1.preBackEnergy         131393661120                       # Energy for precharge background per rank (pJ)
system.mem_ctrls_1.preEnergy               1536902895                       # Energy for precharge commands per rank (pJ)
system.mem_ctrls_1.prePowerDownEnergy               0                       # Energy for precharge power-down per rank (pJ)
system.mem_ctrls_1.readEnergy             18789324120                       # Energy for read commands per rank (pJ)
system.mem_ctrls_1.refreshEnergy         55580665920.000008                       # Energy for refresh commands per rank (pJ)
system.mem_ctrls_1.selfRefreshEnergy                0                       # Energy for self refresh per rank (pJ)
system.mem_ctrls_1.totalEnergy           388879691355                       # Total energy per rank (pJ)
system.mem_ctrls_1.totalIdleTime                    0                       # Total Idle time Per DRAM Rank
system.mem_ctrls_1.writeEnergy            13649386500                       # Energy for write commands per rank (pJ)
system.membus.pkt_count_system.l2.mem_side::system.mem_ctrls.port     15758545                       # Packet count per connected master and slave (bytes)
system.membus.pkt_count::total               15758545                       # Packet count per connected master and slave (bytes)
system.membus.pkt_size_system.l2.mem_side::system.mem_ctrls.port    671631360                       # Cumulative packet size per connected master and slave (bytes)
system.membus.pkt_size::total               671631360                       # Cumulative packet size per connected master and slave (bytes)
system.membus.pwrStateResidencyTicks::UNDEFINED 704096840000                       # Cumulative time (in ticks) in various power states
system.membus.reqLayer0.occupancy         31415982987                       # Layer occupancy (ticks)
system.membus.reqLayer0.utilization               4.5                       # Layer utilization (%)
system.membus.respLayer1.occupancy        27695402248                       # Layer occupancy (ticks)
system.membus.respLayer1.utilization              3.9                       # Layer utilization (%)
system.membus.snoopTraffic                          0                       # Total snoop traffic (bytes)
system.membus.snoop_fanout::samples           5263907                       # Request fanout histogram
system.membus.snoop_fanout::mean                    0                       # Request fanout histogram
system.membus.snoop_fanout::stdev                   0                       # Request fanout histogram
system.membus.snoop_fanout::underflows              0      0.00%      0.00% # Request fanout histogram
system.membus.snoop_fanout::0                 5263907    100.00%    100.00% # Request fanout histogram
system.membus.snoop_fanout::1                       0      0.00%    100.00% # Request fanout histogram
system.membus.snoop_fanout::overflows               0      0.00%    100.00% # Request fanout histogram
system.membus.snoop_fanout::min_value               0                       # Request fanout histogram
system.membus.snoop_fanout::max_value               0                       # Request fanout histogram
system.membus.snoop_fanout::total             5263907                       # Request fanout histogram
system.membus.snoop_filter.hit_multi_requests            0                       # Number of requests hitting in the snoop filter with multiple (>1) holders of the requested data.
system.membus.snoop_filter.hit_multi_snoops            0                       # Number of snoops hitting in the snoop filter with multiple (>1) holders of the requested data.
system.membus.snoop_filter.hit_single_requests      5230741                       # Number of requests hitting in the snoop filter with a single holder of the requested data.
system.membus.snoop_filter.hit_single_snoops            0                       # Number of snoops hitting in the snoop filter with a single holder of the requested data.
system.membus.snoop_filter.tot_requests      10494638                       # Total number of requests made to the snoop filter.
system.membus.snoop_filter.tot_snoops               0                       # Total number of snoops made to the snoop filter.
system.membus.snoops                                0                       # Total snoops (count)
system.membus.trans_dist::ReadResp                834                       # Transaction distribution
system.membus.trans_dist::WritebackDirty      5230333                       # Transaction distribution
system.membus.trans_dist::CleanEvict              398                       # Transaction distribution
system.membus.trans_dist::ReadExReq           5263073                       # Transaction distribution
system.membus.trans_dist::ReadExResp          5263073                       # Transaction distribution
system.membus.trans_dist::ReadSharedReq           834                       # Transaction distribution
system.tol2bus.pkt_count_system.cpu.icache.mem_side::system.l2.cpu_side         1540                       # Packet count per connected master and slave (bytes)
system.tol2bus.pkt_count_system.cpu.dcache.mem_side::system.l2.cpu_side     15789641                       # Packet count per connected master and slave (bytes)
system.tol2bus.pkt_count::total              15791181                       # Packet count per connected master and slave (bytes)
system.tol2bus.pkt_size_system.cpu.icache.mem_side::system.l2.cpu_side        57216                       # Cumulative packet size per connected master and slave (bytes)
system.tol2bus.pkt_size_system.cpu.dcache.mem_side::system.l2.cpu_side    673646336                       # Cumulative packet size per connected master and slave (bytes)
system.tol2bus.pkt_size::total              673703552                       # Cumulative packet size per connected master and slave (bytes)
system.tol2bus.pwrStateResidencyTicks::UNDEFINED 704096840000                       # Cumulative time (in ticks) in various power states
system.tol2bus.reqLayer0.occupancy        21051814000                       # Layer occupancy (ticks)
system.tol2bus.reqLayer0.utilization              3.0                       # Layer utilization (%)
system.tol2bus.respLayer0.occupancy           1940997                       # Layer occupancy (ticks)
system.tol2bus.respLayer0.utilization             0.0                       # Layer utilization (%)
system.tol2bus.respLayer1.occupancy       15790668996                       # Layer occupancy (ticks)
system.tol2bus.respLayer1.utilization             2.2                       # Layer utilization (%)
system.tol2bus.snoopTraffic                 334741312                       # Total snoop traffic (bytes)
system.tol2bus.snoop_fanout::samples         10495450                       # Request fanout histogram
system.tol2bus.snoop_fanout::mean            0.000059                       # Request fanout histogram
system.tol2bus.snoop_fanout::stdev           0.007710                       # Request fanout histogram
system.tol2bus.snoop_fanout::underflows             0      0.00%      0.00% # Request fanout histogram
system.tol2bus.snoop_fanout::0               10494826     99.99%     99.99% # Request fanout histogram
system.tol2bus.snoop_fanout::1                    624      0.01%    100.00% # Request fanout histogram
system.tol2bus.snoop_fanout::2                      0      0.00%    100.00% # Request fanout histogram
system.tol2bus.snoop_fanout::overflows              0      0.00%    100.00% # Request fanout histogram
system.tol2bus.snoop_fanout::min_value              0                       # Request fanout histogram
system.tol2bus.snoop_fanout::max_value              1                       # Request fanout histogram
system.tol2bus.snoop_fanout::total           10495450                       # Request fanout histogram
system.tol2bus.snoop_filter.hit_multi_requests          106                       # Number of requests hitting in the snoop filter with multiple (>1) holders of the requested data.
system.tol2bus.snoop_filter.hit_multi_snoops            0                       # Number of snoops hitting in the snoop filter with multiple (>1) holders of the requested data.
system.tol2bus.snoop_filter.hit_single_requests      5262779                       # Number of requests hitting in the snoop filter with a single holder of the requested data.
system.tol2bus.snoop_filter.hit_single_snoops          518                       # Number of snoops hitting in the snoop filter with a single holder of the requested data.
system.tol2bus.snoop_filter.tot_requests     10526980                       # Total number of requests made to the snoop filter.
system.tol2bus.snoop_filter.tot_snoops            518                       # Total number of snoops made to the snoop filter.
system.tol2bus.snoops                         5231249                       # Total snoops (count)
system.tol2bus.trans_dist::ReadResp              1050                       # Transaction distribution
system.tol2bus.trans_dist::WritebackDirty     10492502                       # Transaction distribution
system.tol2bus.trans_dist::WritebackClean          248                       # Transaction distribution
system.tol2bus.trans_dist::CleanEvict            1278                       # Transaction distribution
system.tol2bus.trans_dist::ReadExReq          5263151                       # Transaction distribution
system.tol2bus.trans_dist::ReadExResp         5263151                       # Transaction distribution
system.tol2bus.trans_dist::ReadCleanReq           646                       # Transaction distribution
system.tol2bus.trans_dist::ReadSharedReq          404                       # Transaction distribution
system.voltage_domain.voltage                       1                       # Voltage in Volts

---------- End Simulation Statistics   ----------
