
---------- Begin Simulation Statistics ----------
final_tick                               704420702000                       # Number of ticks from beginning of simulation (restored from checkpoints and never reset)
host_inst_rate                                  99437                       # Simulator instruction rate (inst/s)
host_mem_usage                                 741388                       # Number of bytes of host memory used
host_op_rate                                   183141                       # Simulator op (including micro ops) rate (op/s)
host_seconds                                  1005.66                       # Real time elapsed on the host
host_tick_rate                              700457310                       # Simulator tick rate (ticks/s)
sim_freq                                 1000000000000                       # Frequency of simulated ticks
sim_insts                                   100000000                       # Number of instructions simulated
sim_ops                                     184177569                       # Number of ops (including micro ops) simulated
sim_seconds                                  0.704421                       # Number of seconds simulated
sim_ticks                                704420702000                       # Number of ticks simulated
system.clk_domain.clock                          1000                       # Clock period in ticks
system.cpu.branchPred.BTBCorrect                    0                       # Number of correct BTB predictions (this stat may not work properly.
system.cpu.branchPred.BTBHitPct             99.958508                       # BTB Hit Percentage
system.cpu.branchPred.BTBHits                10561417                       # Number of BTB hits
system.cpu.branchPred.BTBLookups             10565801                       # Number of BTB lookups
system.cpu.branchPred.RASInCorrect                  5                       # Number of incorrect RAS predictions.
system.cpu.branchPred.condIncorrect              1466                       # Number of conditional branches incorrect
system.cpu.branchPred.condPredicted          10562403                       # Number of conditional branches predicted
system.cpu.branchPred.indirectHits                 27                       # Number of indirect target hits.
system.cpu.branchPred.indirectLookups             188                       # Number of indirect predictor lookups.
system.cpu.branchPred.indirectMisses              161                       # Number of indirect misses.
system.cpu.branchPred.lookups                10570568                       # Number of BP lookups
system.cpu.branchPred.usedRAS                    2715                       # Number of times the RAS was used to get a target.
system.cpu.branchPredindirectMispredicted          102                       # Number of mispredicted indirect branches.
system.cpu.committedInsts                   100000000                       # Number of instructions committed
system.cpu.committedOps                     184177569                       # Number of ops (including micro ops) committed
system.cpu.cpi                               7.044207                       # CPI: cycles per instruction
system.cpu.dcache.LoadLockedReq_accesses::.cpu.data           34                       # number of LoadLockedReq accesses(hits+misses)
system.cpu.dcache.LoadLockedReq_accesses::total           34                       # number of LoadLockedReq accesses(hits+misses)
system.cpu.dcache.LoadLockedReq_avg_miss_latency::.cpu.data        95000                       # average LoadLockedReq miss latency
system.cpu.dcache.LoadLockedReq_avg_miss_latency::total        95000                       # average LoadLockedReq miss latency
system.cpu.dcache.LoadLockedReq_avg_mshr_miss_latency::.cpu.data        93000                       # average LoadLockedReq mshr miss latency
system.cpu.dcache.LoadLockedReq_avg_mshr_miss_latency::total        93000                       # average LoadLockedReq mshr miss latency
system.cpu.dcache.LoadLockedReq_hits::.cpu.data           33                       # number of LoadLockedReq hits
system.cpu.dcache.LoadLockedReq_hits::total           33                       # number of LoadLockedReq hits
system.cpu.dcache.LoadLockedReq_miss_latency::.cpu.data        95000                       # number of LoadLockedReq miss cycles
system.cpu.dcache.LoadLockedReq_miss_latency::total        95000                       # number of LoadLockedReq miss cycles
system.cpu.dcache.LoadLockedReq_miss_rate::.cpu.data     0.029412                       # miss rate for LoadLockedReq accesses
system.cpu.dcache.LoadLockedReq_miss_rate::total     0.029412                       # miss rate for LoadLockedReq accesses
system.cpu.dcache.LoadLockedReq_misses::.cpu.data            1                       # number of LoadLockedReq misses
system.cpu.dcache.LoadLockedReq_misses::total            1                       # number of LoadLockedReq misses
system.cpu.dcache.LoadLockedReq_mshr_miss_latency::.cpu.data        93000                       # number of LoadLockedReq MSHR miss cycles
system.cpu.dcache.LoadLockedReq_mshr_miss_latency::total        93000                       # number of LoadLockedReq MSHR miss cycles
system.cpu.dcache.LoadLockedReq_mshr_miss_rate::.cpu.data     0.029412                       # mshr miss rate for LoadLockedReq accesses
system.cpu.dcache.LoadLockedReq_mshr_miss_rate::total     0.029412                       # mshr miss rate for LoadLockedReq accesses
system.cpu.dcache.LoadLockedReq_mshr_misses::.cpu.data            1                       # number of LoadLockedReq MSHR misses
system.cpu.dcache.LoadLockedReq_mshr_misses::total            1                       # number of LoadLockedReq MSHR misses
system.cpu.dcache.ReadReq_accesses::.cpu.data      2044051                       # number of ReadReq accesses(hits+misses)
system.cpu.dcache.ReadReq_accesses::total      2044051                       # number of ReadReq accesses(hits+misses)
system.cpu.dcache.ReadReq_avg_miss_latency::.cpu.data 96852.201258                       # average ReadReq miss latency
system.cpu.dcache.ReadReq_avg_miss_latency::total 96852.201258                       # average ReadReq miss latency
system.cpu.dcache.ReadReq_avg_mshr_miss_latency::.cpu.data 94979.729730                       # average ReadReq mshr miss latency
system.cpu.dcache.ReadReq_avg_mshr_miss_latency::total 94979.729730                       # average ReadReq mshr miss latency
system.cpu.dcache.ReadReq_hits::.cpu.data      2043733                       # number of ReadReq hits
system.cpu.dcache.ReadReq_hits::total         2043733                       # number of ReadReq hits
system.cpu.dcache.ReadReq_miss_latency::.cpu.data     30799000                       # number of ReadReq miss cycles
system.cpu.dcache.ReadReq_miss_latency::total     30799000                       # number of ReadReq miss cycles
system.cpu.dcache.ReadReq_miss_rate::.cpu.data     0.000156                       # miss rate for ReadReq accesses
system.cpu.dcache.ReadReq_miss_rate::total     0.000156                       # miss rate for ReadReq accesses
system.cpu.dcache.ReadReq_misses::.cpu.data          318                       # number of ReadReq misses
system.cpu.dcache.ReadReq_misses::total           318                       # number of ReadReq misses
system.cpu.dcache.ReadReq_mshr_hits::.cpu.data           22                       # number of ReadReq MSHR hits
system.cpu.dcache.ReadReq_mshr_hits::total           22                       # number of ReadReq MSHR hits
system.cpu.dcache.ReadReq_mshr_miss_latency::.cpu.data     28114000                       # number of ReadReq MSHR miss cycles
system.cpu.dcache.ReadReq_mshr_miss_latency::total     28114000                       # number of ReadReq MSHR miss cycles
system.cpu.dcache.ReadReq_mshr_miss_rate::.cpu.data     0.000145                       # mshr miss rate for ReadReq accesses
system.cpu.dcache.ReadReq_mshr_miss_rate::total     0.000145                       # mshr miss rate for ReadReq accesses
system.cpu.dcache.ReadReq_mshr_misses::.cpu.data          296                       # number of ReadReq MSHR misses
system.cpu.dcache.ReadReq_mshr_misses::total          296                       # number of ReadReq MSHR misses
system.cpu.dcache.SoftPFReq_accesses::.cpu.data           40                       # number of SoftPFReq accesses(hits+misses)
system.cpu.dcache.SoftPFReq_accesses::total           40                       # number of SoftPFReq accesses(hits+misses)
system.cpu.dcache.SoftPFReq_avg_mshr_miss_latency::.cpu.data 101153.846154                       # average SoftPFReq mshr miss latency
system.cpu.dcache.SoftPFReq_avg_mshr_miss_latency::total 101153.846154                       # average SoftPFReq mshr miss latency
system.cpu.dcache.SoftPFReq_hits::.cpu.data           22                       # number of SoftPFReq hits
system.cpu.dcache.SoftPFReq_hits::total            22                       # number of SoftPFReq hits
system.cpu.dcache.SoftPFReq_miss_rate::.cpu.data     0.450000                       # miss rate for SoftPFReq accesses
system.cpu.dcache.SoftPFReq_miss_rate::total     0.450000                       # miss rate for SoftPFReq accesses
system.cpu.dcache.SoftPFReq_misses::.cpu.data           18                       # number of SoftPFReq misses
system.cpu.dcache.SoftPFReq_misses::total           18                       # number of SoftPFReq misses
system.cpu.dcache.SoftPFReq_mshr_miss_latency::.cpu.data      1315000                       # number of SoftPFReq MSHR miss cycles
system.cpu.dcache.SoftPFReq_mshr_miss_latency::total      1315000                       # number of SoftPFReq MSHR miss cycles
system.cpu.dcache.SoftPFReq_mshr_miss_rate::.cpu.data     0.325000                       # mshr miss rate for SoftPFReq accesses
system.cpu.dcache.SoftPFReq_mshr_miss_rate::total     0.325000                       # mshr miss rate for SoftPFReq accesses
system.cpu.dcache.SoftPFReq_mshr_misses::.cpu.data           13                       # number of SoftPFReq MSHR misses
system.cpu.dcache.SoftPFReq_mshr_misses::total           13                       # number of SoftPFReq MSHR misses
system.cpu.dcache.StoreCondReq_accesses::.cpu.data           34                       # number of StoreCondReq accesses(hits+misses)
system.cpu.dcache.StoreCondReq_accesses::total           34                       # number of StoreCondReq accesses(hits+misses)
system.cpu.dcache.StoreCondReq_hits::.cpu.data           34                       # number of StoreCondReq hits
system.cpu.dcache.StoreCondReq_hits::total           34                       # number of StoreCondReq hits
system.cpu.dcache.WriteReq_accesses::.cpu.data     84339639                       # number of WriteReq accesses(hits+misses)
system.cpu.dcache.WriteReq_accesses::total     84339639                       # number of WriteReq accesses(hits+misses)
system.cpu.dcache.WriteReq_avg_miss_latency::.cpu.data 105269.848570                       # average WriteReq miss latency
system.cpu.dcache.WriteReq_avg_miss_latency::total 105269.848570                       # average WriteReq miss latency
system.cpu.dcache.WriteReq_avg_mshr_miss_latency::.cpu.data 102773.018106                       # average WriteReq mshr miss latency
system.cpu.dcache.WriteReq_avg_mshr_miss_latency::total 102773.018106                       # average WriteReq mshr miss latency
system.cpu.dcache.WriteReq_hits::.cpu.data     73815959                       # number of WriteReq hits
system.cpu.dcache.WriteReq_hits::total       73815959                       # number of WriteReq hits
system.cpu.dcache.WriteReq_miss_latency::.cpu.data 1107826200000                       # number of WriteReq miss cycles
system.cpu.dcache.WriteReq_miss_latency::total 1107826200000                       # number of WriteReq miss cycles
system.cpu.dcache.WriteReq_miss_rate::.cpu.data     0.124777                       # miss rate for WriteReq accesses
system.cpu.dcache.WriteReq_miss_rate::total     0.124777                       # miss rate for WriteReq accesses
system.cpu.dcache.WriteReq_misses::.cpu.data     10523680                       # number of WriteReq misses
system.cpu.dcache.WriteReq_misses::total     10523680                       # number of WriteReq misses
system.cpu.dcache.WriteReq_mshr_hits::.cpu.data      5260595                       # number of WriteReq MSHR hits
system.cpu.dcache.WriteReq_mshr_hits::total      5260595                       # number of WriteReq MSHR hits
system.cpu.dcache.WriteReq_mshr_miss_latency::.cpu.data 540903130000                       # number of WriteReq MSHR miss cycles
system.cpu.dcache.WriteReq_mshr_miss_latency::total 540903130000                       # number of WriteReq MSHR miss cycles
system.cpu.dcache.WriteReq_mshr_miss_rate::.cpu.data     0.062403                       # mshr miss rate for WriteReq accesses
system.cpu.dcache.WriteReq_mshr_miss_rate::total     0.062403                       # mshr miss rate for WriteReq accesses
system.cpu.dcache.WriteReq_mshr_misses::.cpu.data      5263085                       # number of WriteReq MSHR misses
system.cpu.dcache.WriteReq_mshr_misses::total      5263085                       # number of WriteReq MSHR misses
system.cpu.dcache.avg_blocked_cycles::no_mshrs          nan                       # average number of cycles each access was blocked
system.cpu.dcache.avg_blocked_cycles::no_targets          nan                       # average number of cycles each access was blocked
system.cpu.dcache.blocked::no_mshrs                 0                       # number of cycles access was blocked
system.cpu.dcache.blocked::no_targets               0                       # number of cycles access was blocked
system.cpu.dcache.blocked_cycles::no_mshrs            0                       # number of cycles access was blocked
system.cpu.dcache.blocked_cycles::no_targets            0                       # number of cycles access was blocked
system.cpu.dcache.demand_accesses::.cpu.data     86383690                       # number of demand (read+write) accesses
system.cpu.dcache.demand_accesses::total     86383690                       # number of demand (read+write) accesses
system.cpu.dcache.demand_avg_miss_latency::.cpu.data 105269.594217                       # average overall miss latency
system.cpu.dcache.demand_avg_miss_latency::total 105269.594217                       # average overall miss latency
system.cpu.dcache.demand_avg_mshr_miss_latency::.cpu.data 102772.579830                       # average overall mshr miss latency
system.cpu.dcache.demand_avg_mshr_miss_latency::total 102772.579830                       # average overall mshr miss latency
system.cpu.dcache.demand_hits::.cpu.data     75859692                       # number of demand (read+write) hits
system.cpu.dcache.demand_hits::total         75859692                       # number of demand (read+write) hits
system.cpu.dcache.demand_miss_latency::.cpu.data 1107856999000                       # number of demand (read+write) miss cycles
system.cpu.dcache.demand_miss_latency::total 1107856999000                       # number of demand (read+write) miss cycles
system.cpu.dcache.demand_miss_rate::.cpu.data     0.121829                       # miss rate for demand accesses
system.cpu.dcache.demand_miss_rate::total     0.121829                       # miss rate for demand accesses
system.cpu.dcache.demand_misses::.cpu.data     10523998                       # number of demand (read+write) misses
system.cpu.dcache.demand_misses::total       10523998                       # number of demand (read+write) misses
system.cpu.dcache.demand_mshr_hits::.cpu.data      5260617                       # number of demand (read+write) MSHR hits
system.cpu.dcache.demand_mshr_hits::total      5260617                       # number of demand (read+write) MSHR hits
system.cpu.dcache.demand_mshr_miss_latency::.cpu.data 540931244000                       # number of demand (read+write) MSHR miss cycles
system.cpu.dcache.demand_mshr_miss_latency::total 540931244000                       # number of demand (read+write) MSHR miss cycles
system.cpu.dcache.demand_mshr_miss_rate::.cpu.data     0.060930                       # mshr miss rate for demand accesses
system.cpu.dcache.demand_mshr_miss_rate::total     0.060930                       # mshr miss rate for demand accesses
system.cpu.dcache.demand_mshr_misses::.cpu.data      5263381                       # number of demand (read+write) MSHR misses
system.cpu.dcache.demand_mshr_misses::total      5263381                       # number of demand (read+write) MSHR misses
system.cpu.dcache.overall_accesses::.cpu.data     86383730                       # number of overall (read+write) accesses
system.cpu.dcache.overall_accesses::total     86383730                       # number of overall (read+write) accesses
system.cpu.dcache.overall_avg_miss_latency::.cpu.data 105269.414167                       # average overall miss latency
system.cpu.dcache.overall_avg_miss_latency::total 105269.414167                       # average overall miss latency
system.cpu.dcache.overall_avg_mshr_miss_latency::.cpu.data 102772.575832                       # average overall mshr miss latency
system.cpu.dcache.overall_avg_mshr_miss_latency::total 102772.575832                       # average overall mshr miss latency
system.cpu.dcache.overall_hits::.cpu.data     75859714                       # number of overall hits
system.cpu.dcache.overall_hits::total        75859714                       # number of overall hits
system.cpu.dcache.overall_miss_latency::.cpu.data 1107856999000                       # number of overall miss cycles
system.cpu.dcache.overall_miss_latency::total 1107856999000                       # number of overall miss cycles
system.cpu.dcache.overall_miss_rate::.cpu.data     0.121829                       # miss rate for overall accesses
system.cpu.dcache.overall_miss_rate::total     0.121829                       # miss rate for overall accesses
system.cpu.dcache.overall_misses::.cpu.data     10524016                       # number of overall misses
system.cpu.dcache.overall_misses::total      10524016                       # number of overall misses
system.cpu.dcache.overall_mshr_hits::.cpu.data      5260617                       # number of overall MSHR hits
system.cpu.dcache.overall_mshr_hits::total      5260617                       # number of overall MSHR hits
system.cpu.dcache.overall_mshr_miss_latency::.cpu.data 540932559000                       # number of overall MSHR miss cycles
system.cpu.dcache.overall_mshr_miss_latency::total 540932559000                       # number of overall MSHR miss cycles
system.cpu.dcache.overall_mshr_miss_rate::.cpu.data     0.060930                       # mshr miss rate for overall accesses
system.cpu.dcache.overall_mshr_miss_rate::total     0.060930                       # mshr miss rate for overall accesses
system.cpu.dcache.overall_mshr_misses::.cpu.data      5263394                       # number of overall MSHR misses
system.cpu.dcache.overall_mshr_misses::total      5263394                       # number of overall MSHR misses
system.cpu.dcache.pwrStateResidencyTicks::UNDEFINED 704420702000                       # Cumulative time (in ticks) in various power states
system.cpu.dcache.replacements                5262371                       # number of replacements
system.cpu.dcache.tags.age_task_id_blocks_1024::0           76                       # Occupied blocks per task id
system.cpu.dcache.tags.age_task_id_blocks_1024::1          678                       # Occupied blocks per task id
system.cpu.dcache.tags.age_task_id_blocks_1024::2          270                       # Occupied blocks per task id
system.cpu.dcache.tags.avg_refs             15.412709                       # Average number of references to valid blocks.
system.cpu.dcache.tags.data_accesses        350798587                       # Number of data accesses
system.cpu.dcache.tags.occ_blocks::.cpu.data  1023.529383                       # Average occupied blocks per requestor
system.cpu.dcache.tags.occ_percent::.cpu.data     0.999540                       # Average percentage of cache occupancy
system.cpu.dcache.tags.occ_percent::total     0.999540                       # Average percentage of cache occupancy
system.cpu.dcache.tags.occ_task_id_blocks::1024         1024                       # Occupied blocks per task id
system.cpu.dcache.tags.occ_task_id_percent::1024            1                       # Percentage of cache occupancy per task id
system.cpu.dcache.tags.pwrStateResidencyTicks::UNDEFINED 704420702000                       # Cumulative time (in ticks) in various power states
system.cpu.dcache.tags.sampled_refs           5263395                       # Sample count of references to valid blocks.
system.cpu.dcache.tags.tag_accesses         350798587                       # Number of tag accesses
system.cpu.dcache.tags.tagsinuse          1023.529383                       # Cycle average of tags in use
system.cpu.dcache.tags.total_refs            81123176                       # Total number of references to valid blocks.
system.cpu.dcache.tags.warmup_cycle            223000                       # Cycle when the warmup percentage was hit.
system.cpu.dcache.writebacks::.writebacks      5262102                       # number of writebacks
system.cpu.dcache.writebacks::total           5262102                       # number of writebacks
system.cpu.discardedOps                          4326                       # Number of ops (including micro ops) which were discarded before commit
system.cpu.dstage2_mmu.stage2_tlb.accesses            0                       # DTB accesses
system.cpu.dstage2_mmu.stage2_tlb.align_faults            0                       # Number of TLB faults due to alignment restrictions
system.cpu.dstage2_mmu.stage2_tlb.domain_faults            0                       # Number of TLB faults due to domain restrictions
system.cpu.dstage2_mmu.stage2_tlb.flush_entries            0                       # Number of entries that have been flushed from TLB
system.cpu.dstage2_mmu.stage2_tlb.flush_tlb            0                       # Number of times complete TLB was flushed
system.cpu.dstage2_mmu.stage2_tlb.flush_tlb_asid            0                       # Number of times TLB was flushed by ASID
system.cpu.dstage2_mmu.stage2_tlb.flush_tlb_mva            0                       # Number of times TLB was flushed by MVA
system.cpu.dstage2_mmu.stage2_tlb.flush_tlb_mva_asid            0                       # Number of times TLB was flushed by MVA & ASID
system.cpu.dstage2_mmu.stage2_tlb.hits              0                       # DTB hits
system.cpu.dstage2_mmu.stage2_tlb.inst_accesses            0                       # ITB inst accesses
system.cpu.dstage2_mmu.stage2_tlb.inst_hits            0                       # ITB inst hits
system.cpu.dstage2_mmu.stage2_tlb.inst_misses            0                       # ITB inst misses
system.cpu.dstage2_mmu.stage2_tlb.misses            0                       # DTB misses
system.cpu.dstage2_mmu.stage2_tlb.perms_faults            0                       # Number of TLB faults due to permissions restrictions
system.cpu.dstage2_mmu.stage2_tlb.prefetch_faults            0                       # Number of TLB faults due to prefetch
system.cpu.dstage2_mmu.stage2_tlb.read_accesses            0                       # DTB read accesses
system.cpu.dstage2_mmu.stage2_tlb.read_hits            0                       # DTB read hits
system.cpu.dstage2_mmu.stage2_tlb.read_misses            0                       # DTB read misses
system.cpu.dstage2_mmu.stage2_tlb.walker.pwrStateResidencyTicks::UNDEFINED 704420702000                       # Cumulative time (in ticks) in various power states
system.cpu.dstage2_mmu.stage2_tlb.walker.walkRequestOrigin_Requested::Data            0                       # Table walker requests started/completed, data/inst
system.cpu.dstage2_mmu.stage2_tlb.walker.walkRequestOrigin_Requested::Inst            0                       # Table walker requests started/completed, data/inst
system.cpu.dstage2_mmu.stage2_tlb.walker.walkRequestOrigin_Requested::total            0                       # Table walker requests started/completed, data/inst
system.cpu.dstage2_mmu.stage2_tlb.walker.walkRequestOrigin_Completed::Data            0                       # Table walker requests started/completed, data/inst
system.cpu.dstage2_mmu.stage2_tlb.walker.walkRequestOrigin_Completed::Inst            0                       # Table walker requests started/completed, data/inst
system.cpu.dstage2_mmu.stage2_tlb.walker.walkRequestOrigin_Completed::total            0                       # Table walker requests started/completed, data/inst
system.cpu.dstage2_mmu.stage2_tlb.walker.walkRequestOrigin::total            0                       # Table walker requests started/completed, data/inst
system.cpu.dstage2_mmu.stage2_tlb.walker.walks            0                       # Table walker walks requested
system.cpu.dstage2_mmu.stage2_tlb.write_accesses            0                       # DTB write accesses
system.cpu.dstage2_mmu.stage2_tlb.write_hits            0                       # DTB write hits
system.cpu.dstage2_mmu.stage2_tlb.write_misses            0                       # DTB write misses
system.cpu.dtb.accesses                             0                       # DTB accesses
system.cpu.dtb.align_faults                         0                       # Number of TLB faults due to alignment restrictions
system.cpu.dtb.domain_faults                        0                       # Number of TLB faults due to domain restrictions
system.cpu.dtb.flush_entries                        0                       # Number of entries that have been flushed from TLB
system.cpu.dtb.flush_tlb                            0                       # Number of times complete TLB was flushed
system.cpu.dtb.flush_tlb_asid                       0                       # Number of times TLB was flushed by ASID
system.cpu.dtb.flush_tlb_mva                        0                       # Number of times TLB was flushed by MVA
system.cpu.dtb.flush_tlb_mva_asid                   0                       # Number of times TLB was flushed by MVA & ASID
system.cpu.dtb.hits                                 0                       # DTB hits
system.cpu.dtb.inst_accesses                        0                       # ITB inst accesses
system.cpu.dtb.inst_hits                            0                       # ITB inst hits
system.cpu.dtb.inst_misses                          0                       # ITB inst misses
system.cpu.dtb.misses                               0                       # DTB misses
system.cpu.dtb.perms_faults                         0                       # Number of TLB faults due to permissions restrictions
system.cpu.dtb.prefetch_faults                      0                       # Number of TLB faults due to prefetch
system.cpu.dtb.read_accesses                        0                       # DTB read accesses
system.cpu.dtb.read_hits                            0                       # DTB read hits
system.cpu.dtb.read_misses                          0                       # DTB read misses
system.cpu.dtb.walker.pwrStateResidencyTicks::UNDEFINED 704420702000                       # Cumulative time (in ticks) in various power states
system.cpu.dtb.walker.walkRequestOrigin_Requested::Data            0                       # Table walker requests started/completed, data/inst
system.cpu.dtb.walker.walkRequestOrigin_Requested::Inst            0                       # Table walker requests started/completed, data/inst
system.cpu.dtb.walker.walkRequestOrigin_Requested::total            0                       # Table walker requests started/completed, data/inst
system.cpu.dtb.walker.walkRequestOrigin_Completed::Data            0                       # Table walker requests started/completed, data/inst
system.cpu.dtb.walker.walkRequestOrigin_Completed::Inst            0                       # Table walker requests started/completed, data/inst
system.cpu.dtb.walker.walkRequestOrigin_Completed::total            0                       # Table walker requests started/completed, data/inst
system.cpu.dtb.walker.walkRequestOrigin::total            0                       # Table walker requests started/completed, data/inst
system.cpu.dtb.walker.walks                         0                       # Table walker walks requested
system.cpu.dtb.write_accesses                       0                       # DTB write accesses
system.cpu.dtb.write_hits                           0                       # DTB write hits
system.cpu.dtb.write_misses                         0                       # DTB write misses
system.cpu.fetch2.amo_instructions                  0                       # Number of memory atomic instructions successfully decoded
system.cpu.fetch2.fp_instructions                   0                       # Number of floating point instructions successfully decoded
system.cpu.fetch2.int_instructions           44892678                       # Number of integer instructions successfully decoded
system.cpu.fetch2.load_instructions           2086557                       # Number of memory load instructions successfully decoded
system.cpu.fetch2.store_instructions           169423                       # Number of memory store instructions successfully decoded
system.cpu.fetch2.vec_instructions                  0                       # Number of SIMD instructions successfully decoded
system.cpu.icache.ReadReq_accesses::.cpu.inst     42406614                       # number of ReadReq accesses(hits+misses)
system.cpu.icache.ReadReq_accesses::total     42406614                       # number of ReadReq accesses(hits+misses)
system.cpu.icache.ReadReq_avg_miss_latency::.cpu.inst 101639.344262                       # average ReadReq miss latency
system.cpu.icache.ReadReq_avg_miss_latency::total 101639.344262                       # average ReadReq miss latency
system.cpu.icache.ReadReq_avg_mshr_miss_latency::.cpu.inst 99639.344262                       # average ReadReq mshr miss latency
system.cpu.icache.ReadReq_avg_mshr_miss_latency::total 99639.344262                       # average ReadReq mshr miss latency
system.cpu.icache.ReadReq_hits::.cpu.inst     42406004                       # number of ReadReq hits
system.cpu.icache.ReadReq_hits::total        42406004                       # number of ReadReq hits
system.cpu.icache.ReadReq_miss_latency::.cpu.inst     62000000                       # number of ReadReq miss cycles
system.cpu.icache.ReadReq_miss_latency::total     62000000                       # number of ReadReq miss cycles
system.cpu.icache.ReadReq_miss_rate::.cpu.inst     0.000014                       # miss rate for ReadReq accesses
system.cpu.icache.ReadReq_miss_rate::total     0.000014                       # miss rate for ReadReq accesses
system.cpu.icache.ReadReq_misses::.cpu.inst          610                       # number of ReadReq misses
system.cpu.icache.ReadReq_misses::total           610                       # number of ReadReq misses
system.cpu.icache.ReadReq_mshr_miss_latency::.cpu.inst     60780000                       # number of ReadReq MSHR miss cycles
system.cpu.icache.ReadReq_mshr_miss_latency::total     60780000                       # number of ReadReq MSHR miss cycles
system.cpu.icache.ReadReq_mshr_miss_rate::.cpu.inst     0.000014                       # mshr miss rate for ReadReq accesses
system.cpu.icache.ReadReq_mshr_miss_rate::total     0.000014                       # mshr miss rate for ReadReq accesses
system.cpu.icache.ReadReq_mshr_misses::.cpu.inst          610                       # number of ReadReq MSHR misses
system.cpu.icache.ReadReq_mshr_misses::total          610                       # number of ReadReq MSHR misses
system.cpu.icache.avg_blocked_cycles::no_mshrs          nan                       # average number of cycles each access was blocked
system.cpu.icache.avg_blocked_cycles::no_targets          nan                       # average number of cycles each access was blocked
system.cpu.icache.blocked::no_mshrs                 0                       # number of cycles access was blocked
system.cpu.icache.blocked::no_targets               0                       # number of cycles access was blocked
system.cpu.icache.blocked_cycles::no_mshrs            0                       # number of cycles access was blocked
system.cpu.icache.blocked_cycles::no_targets            0                       # number of cycles access was blocked
system.cpu.icache.demand_accesses::.cpu.inst     42406614                       # number of demand (read+write) accesses
system.cpu.icache.demand_accesses::total     42406614                       # number of demand (read+write) accesses
system.cpu.icache.demand_avg_miss_latency::.cpu.inst 101639.344262                       # average overall miss latency
system.cpu.icache.demand_avg_miss_latency::total 101639.344262                       # average overall miss latency
system.cpu.icache.demand_avg_mshr_miss_latency::.cpu.inst 99639.344262                       # average overall mshr miss latency
system.cpu.icache.demand_avg_mshr_miss_latency::total 99639.344262                       # average overall mshr miss latency
system.cpu.icache.demand_hits::.cpu.inst     42406004                       # number of demand (read+write) hits
system.cpu.icache.demand_hits::total         42406004                       # number of demand (read+write) hits
system.cpu.icache.demand_miss_latency::.cpu.inst     62000000                       # number of demand (read+write) miss cycles
system.cpu.icache.demand_miss_latency::total     62000000                       # number of demand (read+write) miss cycles
system.cpu.icache.demand_miss_rate::.cpu.inst     0.000014                       # miss rate for demand accesses
system.cpu.icache.demand_miss_rate::total     0.000014                       # miss rate for demand accesses
system.cpu.icache.demand_misses::.cpu.inst          610                       # number of demand (read+write) misses
system.cpu.icache.demand_misses::total            610                       # number of demand (read+write) misses
system.cpu.icache.demand_mshr_miss_latency::.cpu.inst     60780000                       # number of demand (read+write) MSHR miss cycles
system.cpu.icache.demand_mshr_miss_latency::total     60780000                       # number of demand (read+write) MSHR miss cycles
system.cpu.icache.demand_mshr_miss_rate::.cpu.inst     0.000014                       # mshr miss rate for demand accesses
system.cpu.icache.demand_mshr_miss_rate::total     0.000014                       # mshr miss rate for demand accesses
system.cpu.icache.demand_mshr_misses::.cpu.inst          610                       # number of demand (read+write) MSHR misses
system.cpu.icache.demand_mshr_misses::total          610                       # number of demand (read+write) MSHR misses
system.cpu.icache.overall_accesses::.cpu.inst     42406614                       # number of overall (read+write) accesses
system.cpu.icache.overall_accesses::total     42406614                       # number of overall (read+write) accesses
system.cpu.icache.overall_avg_miss_latency::.cpu.inst 101639.344262                       # average overall miss latency
system.cpu.icache.overall_avg_miss_latency::total 101639.344262                       # average overall miss latency
system.cpu.icache.overall_avg_mshr_miss_latency::.cpu.inst 99639.344262                       # average overall mshr miss latency
system.cpu.icache.overall_avg_mshr_miss_latency::total 99639.344262                       # average overall mshr miss latency
system.cpu.icache.overall_hits::.cpu.inst     42406004                       # number of overall hits
system.cpu.icache.overall_hits::total        42406004                       # number of overall hits
system.cpu.icache.overall_miss_latency::.cpu.inst     62000000                       # number of overall miss cycles
system.cpu.icache.overall_miss_latency::total     62000000                       # number of overall miss cycles
system.cpu.icache.overall_miss_rate::.cpu.inst     0.000014                       # miss rate for overall accesses
system.cpu.icache.overall_miss_rate::total     0.000014                       # miss rate for overall accesses
system.cpu.icache.overall_misses::.cpu.inst          610                       # number of overall misses
system.cpu.icache.overall_misses::total           610                       # number of overall misses
system.cpu.icache.overall_mshr_miss_latency::.cpu.inst     60780000                       # number of overall MSHR miss cycles
system.cpu.icache.overall_mshr_miss_latency::total     60780000                       # number of overall MSHR miss cycles
system.cpu.icache.overall_mshr_miss_rate::.cpu.inst     0.000014                       # mshr miss rate for overall accesses
system.cpu.icache.overall_mshr_miss_rate::total     0.000014                       # mshr miss rate for overall accesses
system.cpu.icache.overall_mshr_misses::.cpu.inst          610                       # number of overall MSHR misses
system.cpu.icache.overall_mshr_misses::total          610                       # number of overall MSHR misses
system.cpu.icache.pwrStateResidencyTicks::UNDEFINED 704420702000                       # Cumulative time (in ticks) in various power states
system.cpu.icache.replacements                    154                       # number of replacements
system.cpu.icache.tags.age_task_id_blocks_1024::4          456                       # Occupied blocks per task id
system.cpu.icache.tags.avg_refs          69519.039344                       # Average number of references to valid blocks.
system.cpu.icache.tags.data_accesses        169627066                       # Number of data accesses
system.cpu.icache.tags.occ_blocks::.cpu.inst   415.720538                       # Average occupied blocks per requestor
system.cpu.icache.tags.occ_percent::.cpu.inst     0.811954                       # Average percentage of cache occupancy
system.cpu.icache.tags.occ_percent::total     0.811954                       # Average percentage of cache occupancy
system.cpu.icache.tags.occ_task_id_blocks::1024          456                       # Occupied blocks per task id
system.cpu.icache.tags.occ_task_id_percent::1024     0.890625                       # Percentage of cache occupancy per task id
system.cpu.icache.tags.pwrStateResidencyTicks::UNDEFINED 704420702000                       # Cumulative time (in ticks) in various power states
system.cpu.icache.tags.sampled_refs               610                       # Sample count of references to valid blocks.
system.cpu.icache.tags.tag_accesses         169627066                       # Number of tag accesses
system.cpu.icache.tags.tagsinuse           415.720538                       # Cycle average of tags in use
system.cpu.icache.tags.total_refs            42406614                       # Total number of references to valid blocks.
system.cpu.icache.tags.warmup_cycle            108000                       # Cycle when the warmup percentage was hit.
system.cpu.icache.writebacks::.writebacks          154                       # number of writebacks
system.cpu.icache.writebacks::total               154                       # number of writebacks
system.cpu.idleCycles                       451654411                       # Total number of cycles that the object has spent stopped
system.cpu.ipc                               0.141961                       # IPC: instructions per cycle
system.cpu.istage2_mmu.stage2_tlb.accesses            0                       # DTB accesses
system.cpu.istage2_mmu.stage2_tlb.align_faults            0                       # Number of TLB faults due to alignment restrictions
system.cpu.istage2_mmu.stage2_tlb.domain_faults            0                       # Number of TLB faults due to domain restrictions
system.cpu.istage2_mmu.stage2_tlb.flush_entries            0                       # Number of entries that have been flushed from TLB
system.cpu.istage2_mmu.stage2_tlb.flush_tlb            0                       # Number of times complete TLB was flushed
system.cpu.istage2_mmu.stage2_tlb.flush_tlb_asid            0                       # Number of times TLB was flushed by ASID
system.cpu.istage2_mmu.stage2_tlb.flush_tlb_mva            0                       # Number of times TLB was flushed by MVA
system.cpu.istage2_mmu.stage2_tlb.flush_tlb_mva_asid            0                       # Number of times TLB was flushed by MVA & ASID
system.cpu.istage2_mmu.stage2_tlb.hits              0                       # DTB hits
system.cpu.istage2_mmu.stage2_tlb.inst_accesses            0                       # ITB inst accesses
system.cpu.istage2_mmu.stage2_tlb.inst_hits            0                       # ITB inst hits
system.cpu.istage2_mmu.stage2_tlb.inst_misses            0                       # ITB inst misses
system.cpu.istage2_mmu.stage2_tlb.misses            0                       # DTB misses
system.cpu.istage2_mmu.stage2_tlb.perms_faults            0                       # Number of TLB faults due to permissions restrictions
system.cpu.istage2_mmu.stage2_tlb.prefetch_faults            0                       # Number of TLB faults due to prefetch
system.cpu.istage2_mmu.stage2_tlb.read_accesses            0                       # DTB read accesses
system.cpu.istage2_mmu.stage2_tlb.read_hits            0                       # DTB read hits
system.cpu.istage2_mmu.stage2_tlb.read_misses            0                       # DTB read misses
system.cpu.istage2_mmu.stage2_tlb.walker.pwrStateResidencyTicks::UNDEFINED 704420702000                       # Cumulative time (in ticks) in various power states
system.cpu.istage2_mmu.stage2_tlb.walker.walkRequestOrigin_Requested::Data            0                       # Table walker requests started/completed, data/inst
system.cpu.istage2_mmu.stage2_tlb.walker.walkRequestOrigin_Requested::Inst            0                       # Table walker requests started/completed, data/inst
system.cpu.istage2_mmu.stage2_tlb.walker.walkRequestOrigin_Requested::total            0                       # Table walker requests started/completed, data/inst
system.cpu.istage2_mmu.stage2_tlb.walker.walkRequestOrigin_Completed::Data            0                       # Table walker requests started/completed, data/inst
system.cpu.istage2_mmu.stage2_tlb.walker.walkRequestOrigin_Completed::Inst            0                       # Table walker requests started/completed, data/inst
system.cpu.istage2_mmu.stage2_tlb.walker.walkRequestOrigin_Completed::total            0                       # Table walker requests started/completed, data/inst
system.cpu.istage2_mmu.stage2_tlb.walker.walkRequestOrigin::total            0                       # Table walker requests started/completed, data/inst
system.cpu.istage2_mmu.stage2_tlb.walker.walks            0                       # Table walker walks requested
system.cpu.istage2_mmu.stage2_tlb.write_accesses            0                       # DTB write accesses
system.cpu.istage2_mmu.stage2_tlb.write_hits            0                       # DTB write hits
system.cpu.istage2_mmu.stage2_tlb.write_misses            0                       # DTB write misses
system.cpu.itb.accesses                             0                       # DTB accesses
system.cpu.itb.align_faults                         0                       # Number of TLB faults due to alignment restrictions
system.cpu.itb.domain_faults                        0                       # Number of TLB faults due to domain restrictions
system.cpu.itb.flush_entries                        0                       # Number of entries that have been flushed from TLB
system.cpu.itb.flush_tlb                            0                       # Number of times complete TLB was flushed
system.cpu.itb.flush_tlb_asid                       0                       # Number of times TLB was flushed by ASID
system.cpu.itb.flush_tlb_mva                        0                       # Number of times TLB was flushed by MVA
system.cpu.itb.flush_tlb_mva_asid                   0                       # Number of times TLB was flushed by MVA & ASID
system.cpu.itb.hits                                 0                       # DTB hits
system.cpu.itb.inst_accesses                        0                       # ITB inst accesses
system.cpu.itb.inst_hits                            0                       # ITB inst hits
system.cpu.itb.inst_misses                          0                       # ITB inst misses
system.cpu.itb.misses                               0                       # DTB misses
system.cpu.itb.perms_faults                         0                       # Number of TLB faults due to permissions restrictions
system.cpu.itb.prefetch_faults                      0                       # Number of TLB faults due to prefetch
system.cpu.itb.read_accesses                        0                       # DTB read accesses
system.cpu.itb.read_hits                            0                       # DTB read hits
system.cpu.itb.read_misses                          0                       # DTB read misses
system.cpu.itb.walker.pwrStateResidencyTicks::UNDEFINED 704420702000                       # Cumulative time (in ticks) in various power states
system.cpu.itb.walker.walkRequestOrigin_Requested::Data            0                       # Table walker requests started/completed, data/inst
system.cpu.itb.walker.walkRequestOrigin_Requested::Inst            0                       # Table walker requests started/completed, data/inst
system.cpu.itb.walker.walkRequestOrigin_Requested::total            0                       # Table walker requests started/completed, data/inst
system.cpu.itb.walker.walkRequestOrigin_Completed::Data            0                       # Table walker requests started/completed, data/inst
system.cpu.itb.walker.walkRequestOrigin_Completed::Inst            0                       # Table walker requests started/completed, data/inst
system.cpu.itb.walker.walkRequestOrigin_Completed::total            0                       # Table walker requests started/completed, data/inst
system.cpu.itb.walker.walkRequestOrigin::total            0                       # Table walker requests started/completed, data/inst
system.cpu.itb.walker.walks                         0                       # Table walker walks requested
system.cpu.itb.write_accesses                       0                       # DTB write accesses
system.cpu.itb.write_hits                           0                       # DTB write hits
system.cpu.itb.write_misses                         0                       # DTB write misses
system.cpu.numCycles                        704420702                       # number of cpu cycles simulated
system.cpu.numFetchSuspends                         0                       # Number of times Execute suspended instruction fetching
system.cpu.numWorkItemsCompleted                    0                       # number of work items this cpu completed
system.cpu.numWorkItemsStarted                      0                       # number of work items this cpu started
system.cpu.op_class_0::No_OpClass                   0      0.00%      0.00% # Class of committed instruction
system.cpu.op_class_0::IntAlu                97640233     53.01%     53.01% # Class of committed instruction
system.cpu.op_class_0::IntMult                 114699      0.06%     53.08% # Class of committed instruction
system.cpu.op_class_0::IntDiv                       0      0.00%     53.08% # Class of committed instruction
system.cpu.op_class_0::FloatAdd                     0      0.00%     53.08% # Class of committed instruction
system.cpu.op_class_0::FloatCmp                     0      0.00%     53.08% # Class of committed instruction
system.cpu.op_class_0::FloatCvt                     0      0.00%     53.08% # Class of committed instruction
system.cpu.op_class_0::FloatMult                    0      0.00%     53.08% # Class of committed instruction
system.cpu.op_class_0::FloatMultAcc                 0      0.00%     53.08% # Class of committed instruction
system.cpu.op_class_0::FloatDiv                     0      0.00%     53.08% # Class of committed instruction
system.cpu.op_class_0::FloatMisc                    0      0.00%     53.08% # Class of committed instruction
system.cpu.op_class_0::FloatSqrt                    0      0.00%     53.08% # Class of committed instruction
system.cpu.op_class_0::SimdAdd                      8      0.00%     53.08% # Class of committed instruction
system.cpu.op_class_0::SimdAddAcc                   0      0.00%     53.08% # Class of committed instruction
system.cpu.op_class_0::SimdAlu                      8      0.00%     53.08% # Class of committed instruction
system.cpu.op_class_0::SimdCmp                      6      0.00%     53.08% # Class of committed instruction
system.cpu.op_class_0::SimdCvt                      0      0.00%     53.08% # Class of committed instruction
system.cpu.op_class_0::SimdMisc                     1      0.00%     53.08% # Class of committed instruction
system.cpu.op_class_0::SimdMult                     0      0.00%     53.08% # Class of committed instruction
system.cpu.op_class_0::SimdMultAcc                  0      0.00%     53.08% # Class of committed instruction
system.cpu.op_class_0::SimdShift                    0      0.00%     53.08% # Class of committed instruction
system.cpu.op_class_0::SimdShiftAcc                 0      0.00%     53.08% # Class of committed instruction
system.cpu.op_class_0::SimdDiv                      0      0.00%     53.08% # Class of committed instruction
system.cpu.op_class_0::SimdSqrt                     0      0.00%     53.08% # Class of committed instruction
system.cpu.op_class_0::SimdFloatAdd                 0      0.00%     53.08% # Class of committed instruction
system.cpu.op_class_0::SimdFloatAlu                 0      0.00%     53.08% # Class of committed instruction
system.cpu.op_class_0::SimdFloatCmp                 0      0.00%     53.08% # Class of committed instruction
system.cpu.op_class_0::SimdFloatCvt                 0      0.00%     53.08% # Class of committed instruction
system.cpu.op_class_0::SimdFloatDiv                 0      0.00%     53.08% # Class of committed instruction
system.cpu.op_class_0::SimdFloatMisc                9      0.00%     53.08% # Class of committed instruction
system.cpu.op_class_0::SimdFloatMult                0      0.00%     53.08% # Class of committed instruction
system.cpu.op_class_0::SimdFloatMultAcc             0      0.00%     53.08% # Class of committed instruction
system.cpu.op_class_0::SimdFloatSqrt                0      0.00%     53.08% # Class of committed instruction
system.cpu.op_class_0::SimdReduceAdd                0      0.00%     53.08% # Class of committed instruction
system.cpu.op_class_0::SimdReduceAlu                0      0.00%     53.08% # Class of committed instruction
system.cpu.op_class_0::SimdReduceCmp                0      0.00%     53.08% # Class of committed instruction
system.cpu.op_class_0::SimdFloatReduceAdd            0      0.00%     53.08% # Class of committed instruction
system.cpu.op_class_0::SimdFloatReduceCmp            0      0.00%     53.08% # Class of committed instruction
system.cpu.op_class_0::SimdAes                      0      0.00%     53.08% # Class of committed instruction
system.cpu.op_class_0::SimdAesMix                   0      0.00%     53.08% # Class of committed instruction
system.cpu.op_class_0::SimdSha1Hash                 0      0.00%     53.08% # Class of committed instruction
system.cpu.op_class_0::SimdSha1Hash2                0      0.00%     53.08% # Class of committed instruction
system.cpu.op_class_0::SimdSha256Hash               0      0.00%     53.08% # Class of committed instruction
system.cpu.op_class_0::SimdSha256Hash2              0      0.00%     53.08% # Class of committed instruction
system.cpu.op_class_0::SimdShaSigma2                0      0.00%     53.08% # Class of committed instruction
system.cpu.op_class_0::SimdShaSigma3                0      0.00%     53.08% # Class of committed instruction
system.cpu.op_class_0::SimdPredAlu                  0      0.00%     53.08% # Class of committed instruction
system.cpu.op_class_0::MemRead                2082603      1.13%     54.21% # Class of committed instruction
system.cpu.op_class_0::MemWrite              84340002     45.79%    100.00% # Class of committed instruction
system.cpu.op_class_0::FloatMemRead                 0      0.00%    100.00% # Class of committed instruction
system.cpu.op_class_0::FloatMemWrite                0      0.00%    100.00% # Class of committed instruction
system.cpu.op_class_0::IprAccess                    0      0.00%    100.00% # Class of committed instruction
system.cpu.op_class_0::InstPrefetch                 0      0.00%    100.00% # Class of committed instruction
system.cpu.op_class_0::total                184177569                       # Class of committed instruction
system.cpu.pwrStateResidencyTicks::ON    704420702000                       # Cumulative time (in ticks) in various power states
system.cpu.tickCycles                       252766291                       # Number of cycles that the object actually ticked
system.cpu.workload.numSyscalls                    18                       # Number of system calls
system.cpu_clk_domain.clock                      1000                       # Clock period in ticks
system.cpu_voltage_domain.voltage                   1                       # Voltage in Volts
system.l2.ReadCleanReq_accesses::.cpu.inst          610                       # number of ReadCleanReq accesses(hits+misses)
system.l2.ReadCleanReq_accesses::total            610                       # number of ReadCleanReq accesses(hits+misses)
system.l2.ReadCleanReq_avg_miss_latency::.cpu.inst 100894.280763                       # average ReadCleanReq miss latency
system.l2.ReadCleanReq_avg_miss_latency::total 100894.280763                       # average ReadCleanReq miss latency
system.l2.ReadCleanReq_avg_mshr_miss_latency::.cpu.inst 80939.024390                       # average ReadCleanReq mshr miss latency
system.l2.ReadCleanReq_avg_mshr_miss_latency::total 80939.024390                       # average ReadCleanReq mshr miss latency
system.l2.ReadCleanReq_hits::.cpu.inst             33                       # number of ReadCleanReq hits
system.l2.ReadCleanReq_hits::total                 33                       # number of ReadCleanReq hits
system.l2.ReadCleanReq_miss_latency::.cpu.inst     58216000                       # number of ReadCleanReq miss cycles
system.l2.ReadCleanReq_miss_latency::total     58216000                       # number of ReadCleanReq miss cycles
system.l2.ReadCleanReq_miss_rate::.cpu.inst     0.945902                       # miss rate for ReadCleanReq accesses
system.l2.ReadCleanReq_miss_rate::total      0.945902                       # miss rate for ReadCleanReq accesses
system.l2.ReadCleanReq_misses::.cpu.inst          577                       # number of ReadCleanReq misses
system.l2.ReadCleanReq_misses::total              577                       # number of ReadCleanReq misses
system.l2.ReadCleanReq_mshr_hits::.cpu.inst            3                       # number of ReadCleanReq MSHR hits
system.l2.ReadCleanReq_mshr_hits::total             3                       # number of ReadCleanReq MSHR hits
system.l2.ReadCleanReq_mshr_miss_latency::.cpu.inst     46459000                       # number of ReadCleanReq MSHR miss cycles
system.l2.ReadCleanReq_mshr_miss_latency::total     46459000                       # number of ReadCleanReq MSHR miss cycles
system.l2.ReadCleanReq_mshr_miss_rate::.cpu.inst     0.940984                       # mshr miss rate for ReadCleanReq accesses
system.l2.ReadCleanReq_mshr_miss_rate::total     0.940984                       # mshr miss rate for ReadCleanReq accesses
system.l2.ReadCleanReq_mshr_misses::.cpu.inst          574                       # number of ReadCleanReq MSHR misses
system.l2.ReadCleanReq_mshr_misses::total          574                       # number of ReadCleanReq MSHR misses
system.l2.ReadExReq_accesses::.cpu.data       5263085                       # number of ReadExReq accesses(hits+misses)
system.l2.ReadExReq_accesses::total           5263085                       # number of ReadExReq accesses(hits+misses)
system.l2.ReadExReq_avg_miss_latency::.cpu.data 99773.197142                       # average ReadExReq miss latency
system.l2.ReadExReq_avg_miss_latency::total 99773.197142                       # average ReadExReq miss latency
system.l2.ReadExReq_avg_mshr_miss_latency::.cpu.data 79773.197142                       # average ReadExReq mshr miss latency
system.l2.ReadExReq_avg_mshr_miss_latency::total 79773.197142                       # average ReadExReq mshr miss latency
system.l2.ReadExReq_hits::.cpu.data                12                       # number of ReadExReq hits
system.l2.ReadExReq_hits::total                    12                       # number of ReadExReq hits
system.l2.ReadExReq_miss_latency::.cpu.data 525113620000                       # number of ReadExReq miss cycles
system.l2.ReadExReq_miss_latency::total  525113620000                       # number of ReadExReq miss cycles
system.l2.ReadExReq_miss_rate::.cpu.data     0.999998                       # miss rate for ReadExReq accesses
system.l2.ReadExReq_miss_rate::total         0.999998                       # miss rate for ReadExReq accesses
system.l2.ReadExReq_misses::.cpu.data         5263073                       # number of ReadExReq misses
system.l2.ReadExReq_misses::total             5263073                       # number of ReadExReq misses
system.l2.ReadExReq_mshr_miss_latency::.cpu.data 419852160000                       # number of ReadExReq MSHR miss cycles
system.l2.ReadExReq_mshr_miss_latency::total 419852160000                       # number of ReadExReq MSHR miss cycles
system.l2.ReadExReq_mshr_miss_rate::.cpu.data     0.999998                       # mshr miss rate for ReadExReq accesses
system.l2.ReadExReq_mshr_miss_rate::total     0.999998                       # mshr miss rate for ReadExReq accesses
system.l2.ReadExReq_mshr_misses::.cpu.data      5263073                       # number of ReadExReq MSHR misses
system.l2.ReadExReq_mshr_misses::total        5263073                       # number of ReadExReq MSHR misses
system.l2.ReadSharedReq_accesses::.cpu.data          310                       # number of ReadSharedReq accesses(hits+misses)
system.l2.ReadSharedReq_accesses::total           310                       # number of ReadSharedReq accesses(hits+misses)
system.l2.ReadSharedReq_avg_miss_latency::.cpu.data 105080.152672                       # average ReadSharedReq miss latency
system.l2.ReadSharedReq_avg_miss_latency::total 105080.152672                       # average ReadSharedReq miss latency
system.l2.ReadSharedReq_avg_mshr_miss_latency::.cpu.data 85426.356589                       # average ReadSharedReq mshr miss latency
system.l2.ReadSharedReq_avg_mshr_miss_latency::total 85426.356589                       # average ReadSharedReq mshr miss latency
system.l2.ReadSharedReq_hits::.cpu.data            48                       # number of ReadSharedReq hits
system.l2.ReadSharedReq_hits::total                48                       # number of ReadSharedReq hits
system.l2.ReadSharedReq_miss_latency::.cpu.data     27531000                       # number of ReadSharedReq miss cycles
system.l2.ReadSharedReq_miss_latency::total     27531000                       # number of ReadSharedReq miss cycles
system.l2.ReadSharedReq_miss_rate::.cpu.data     0.845161                       # miss rate for ReadSharedReq accesses
system.l2.ReadSharedReq_miss_rate::total     0.845161                       # miss rate for ReadSharedReq accesses
system.l2.ReadSharedReq_misses::.cpu.data          262                       # number of ReadSharedReq misses
system.l2.ReadSharedReq_misses::total             262                       # number of ReadSharedReq misses
system.l2.ReadSharedReq_mshr_hits::.cpu.data            4                       # number of ReadSharedReq MSHR hits
system.l2.ReadSharedReq_mshr_hits::total            4                       # number of ReadSharedReq MSHR hits
system.l2.ReadSharedReq_mshr_miss_latency::.cpu.data     22040000                       # number of ReadSharedReq MSHR miss cycles
system.l2.ReadSharedReq_mshr_miss_latency::total     22040000                       # number of ReadSharedReq MSHR miss cycles
system.l2.ReadSharedReq_mshr_miss_rate::.cpu.data     0.832258                       # mshr miss rate for ReadSharedReq accesses
system.l2.ReadSharedReq_mshr_miss_rate::total     0.832258                       # mshr miss rate for ReadSharedReq accesses
system.l2.ReadSharedReq_mshr_misses::.cpu.data          258                       # number of ReadSharedReq MSHR misses
system.l2.ReadSharedReq_mshr_misses::total          258                       # number of ReadSharedReq MSHR misses
system.l2.WritebackClean_accesses::.writebacks          150                       # number of WritebackClean accesses(hits+misses)
system.l2.WritebackClean_accesses::total          150                       # number of WritebackClean accesses(hits+misses)
system.l2.WritebackClean_hits::.writebacks          150                       # number of WritebackClean hits
system.l2.WritebackClean_hits::total              150                       # number of WritebackClean hits
system.l2.WritebackDirty_accesses::.writebacks      5262102                       # number of WritebackDirty accesses(hits+misses)
system.l2.WritebackDirty_accesses::total      5262102                       # number of WritebackDirty accesses(hits+misses)
system.l2.WritebackDirty_hits::.writebacks      5262102                       # number of WritebackDirty hits
system.l2.WritebackDirty_hits::total          5262102                       # number of WritebackDirty hits
system.l2.avg_blocked_cycles::no_mshrs            nan                       # average number of cycles each access was blocked
system.l2.avg_blocked_cycles::no_targets          nan                       # average number of cycles each access was blocked
system.l2.blocked::no_mshrs                         0                       # number of cycles access was blocked
system.l2.blocked::no_targets                       0                       # number of cycles access was blocked
system.l2.blocked_cycles::no_mshrs                  0                       # number of cycles access was blocked
system.l2.blocked_cycles::no_targets                0                       # number of cycles access was blocked
system.l2.demand_accesses::.cpu.inst              610                       # number of demand (read+write) accesses
system.l2.demand_accesses::.cpu.data          5263395                       # number of demand (read+write) accesses
system.l2.demand_accesses::total              5264005                       # number of demand (read+write) accesses
system.l2.demand_avg_miss_latency::.cpu.inst 100894.280763                       # average overall miss latency
system.l2.demand_avg_miss_latency::.cpu.data 99773.461313                       # average overall miss latency
system.l2.demand_avg_miss_latency::total 99773.584171                       # average overall miss latency
system.l2.demand_avg_mshr_miss_latency::.cpu.inst 80939.024390                       # average overall mshr miss latency
system.l2.demand_avg_mshr_miss_latency::.cpu.data 79773.474250                       # average overall mshr miss latency
system.l2.demand_avg_mshr_miss_latency::total 79773.601347                       # average overall mshr miss latency
system.l2.demand_hits::.cpu.inst                   33                       # number of demand (read+write) hits
system.l2.demand_hits::.cpu.data                   60                       # number of demand (read+write) hits
system.l2.demand_hits::total                       93                       # number of demand (read+write) hits
system.l2.demand_miss_latency::.cpu.inst     58216000                       # number of demand (read+write) miss cycles
system.l2.demand_miss_latency::.cpu.data 525141151000                       # number of demand (read+write) miss cycles
system.l2.demand_miss_latency::total     525199367000                       # number of demand (read+write) miss cycles
system.l2.demand_miss_rate::.cpu.inst        0.945902                       # miss rate for demand accesses
system.l2.demand_miss_rate::.cpu.data        0.999989                       # miss rate for demand accesses
system.l2.demand_miss_rate::total            0.999982                       # miss rate for demand accesses
system.l2.demand_misses::.cpu.inst                577                       # number of demand (read+write) misses
system.l2.demand_misses::.cpu.data            5263335                       # number of demand (read+write) misses
system.l2.demand_misses::total                5263912                       # number of demand (read+write) misses
system.l2.demand_mshr_hits::.cpu.inst               3                       # number of demand (read+write) MSHR hits
system.l2.demand_mshr_hits::.cpu.data               4                       # number of demand (read+write) MSHR hits
system.l2.demand_mshr_hits::total                   7                       # number of demand (read+write) MSHR hits
system.l2.demand_mshr_miss_latency::.cpu.inst     46459000                       # number of demand (read+write) MSHR miss cycles
system.l2.demand_mshr_miss_latency::.cpu.data 419874200000                       # number of demand (read+write) MSHR miss cycles
system.l2.demand_mshr_miss_latency::total 419920659000                       # number of demand (read+write) MSHR miss cycles
system.l2.demand_mshr_miss_rate::.cpu.inst     0.940984                       # mshr miss rate for demand accesses
system.l2.demand_mshr_miss_rate::.cpu.data     0.999988                       # mshr miss rate for demand accesses
system.l2.demand_mshr_miss_rate::total       0.999981                       # mshr miss rate for demand accesses
system.l2.demand_mshr_misses::.cpu.inst           574                       # number of demand (read+write) MSHR misses
system.l2.demand_mshr_misses::.cpu.data       5263331                       # number of demand (read+write) MSHR misses
system.l2.demand_mshr_misses::total           5263905                       # number of demand (read+write) MSHR misses
system.l2.overall_accesses::.cpu.inst             610                       # number of overall (read+write) accesses
system.l2.overall_accesses::.cpu.data         5263395                       # number of overall (read+write) accesses
system.l2.overall_accesses::total             5264005                       # number of overall (read+write) accesses
system.l2.overall_avg_miss_latency::.cpu.inst 100894.280763                       # average overall miss latency
system.l2.overall_avg_miss_latency::.cpu.data 99773.461313                       # average overall miss latency
system.l2.overall_avg_miss_latency::total 99773.584171                       # average overall miss latency
system.l2.overall_avg_mshr_miss_latency::.cpu.inst 80939.024390                       # average overall mshr miss latency
system.l2.overall_avg_mshr_miss_latency::.cpu.data 79773.474250                       # average overall mshr miss latency
system.l2.overall_avg_mshr_miss_latency::total 79773.601347                       # average overall mshr miss latency
system.l2.overall_hits::.cpu.inst                  33                       # number of overall hits
system.l2.overall_hits::.cpu.data                  60                       # number of overall hits
system.l2.overall_hits::total                      93                       # number of overall hits
system.l2.overall_miss_latency::.cpu.inst     58216000                       # number of overall miss cycles
system.l2.overall_miss_latency::.cpu.data 525141151000                       # number of overall miss cycles
system.l2.overall_miss_latency::total    525199367000                       # number of overall miss cycles
system.l2.overall_miss_rate::.cpu.inst       0.945902                       # miss rate for overall accesses
system.l2.overall_miss_rate::.cpu.data       0.999989                       # miss rate for overall accesses
system.l2.overall_miss_rate::total           0.999982                       # miss rate for overall accesses
system.l2.overall_misses::.cpu.inst               577                       # number of overall misses
system.l2.overall_misses::.cpu.data           5263335                       # number of overall misses
system.l2.overall_misses::total               5263912                       # number of overall misses
system.l2.overall_mshr_hits::.cpu.inst              3                       # number of overall MSHR hits
system.l2.overall_mshr_hits::.cpu.data              4                       # number of overall MSHR hits
system.l2.overall_mshr_hits::total                  7                       # number of overall MSHR hits
system.l2.overall_mshr_miss_latency::.cpu.inst     46459000                       # number of overall MSHR miss cycles
system.l2.overall_mshr_miss_latency::.cpu.data 419874200000                       # number of overall MSHR miss cycles
system.l2.overall_mshr_miss_latency::total 419920659000                       # number of overall MSHR miss cycles
system.l2.overall_mshr_miss_rate::.cpu.inst     0.940984                       # mshr miss rate for overall accesses
system.l2.overall_mshr_miss_rate::.cpu.data     0.999988                       # mshr miss rate for overall accesses
system.l2.overall_mshr_miss_rate::total      0.999981                       # mshr miss rate for overall accesses
system.l2.overall_mshr_misses::.cpu.inst          574                       # number of overall MSHR misses
system.l2.overall_mshr_misses::.cpu.data      5263331                       # number of overall MSHR misses
system.l2.overall_mshr_misses::total          5263905                       # number of overall MSHR misses
system.l2.pwrStateResidencyTicks::UNDEFINED 704420702000                       # Cumulative time (in ticks) in various power states
system.l2.replacements                        5231236                       # number of replacements
system.l2.tags.age_task_id_blocks_1024::0           76                       # Occupied blocks per task id
system.l2.tags.age_task_id_blocks_1024::1          678                       # Occupied blocks per task id
system.l2.tags.age_task_id_blocks_1024::2         6782                       # Occupied blocks per task id
system.l2.tags.age_task_id_blocks_1024::3        25232                       # Occupied blocks per task id
system.l2.tags.avg_refs                      1.999707                       # Average number of references to valid blocks.
system.l2.tags.data_accesses                173687588                       # Number of data accesses
system.l2.tags.occ_blocks::.writebacks       0.578827                       # Average occupied blocks per requestor
system.l2.tags.occ_blocks::.cpu.inst         5.922084                       # Average occupied blocks per requestor
system.l2.tags.occ_blocks::.cpu.data     32423.022588                       # Average occupied blocks per requestor
system.l2.tags.occ_percent::.writebacks      0.000018                       # Average percentage of cache occupancy
system.l2.tags.occ_percent::.cpu.inst        0.000181                       # Average percentage of cache occupancy
system.l2.tags.occ_percent::.cpu.data        0.989472                       # Average percentage of cache occupancy
system.l2.tags.occ_percent::total            0.989671                       # Average percentage of cache occupancy
system.l2.tags.occ_task_id_blocks::1024         32768                       # Occupied blocks per task id
system.l2.tags.occ_task_id_percent::1024            1                       # Percentage of cache occupancy per task id
system.l2.tags.pwrStateResidencyTicks::UNDEFINED 704420702000                       # Cumulative time (in ticks) in various power states
system.l2.tags.sampled_refs                   5264004                       # Sample count of references to valid blocks.
system.l2.tags.tag_accesses                 173687588                       # Number of tag accesses
system.l2.tags.tagsinuse                 32429.523500                       # Cycle average of tags in use
system.l2.tags.total_refs                    10526467                       # Total number of references to valid blocks.
system.l2.tags.warmup_cycle                     87000                       # Cycle when the warmup percentage was hit.
system.l2.writebacks::.writebacks             5230333                       # number of writebacks
system.l2.writebacks::total                   5230333                       # number of writebacks
system.mem_ctrls.avgBusLat                    5000.00                       # Average bus latency per DRAM burst
system.mem_ctrls.avgGap                      67124.52                       # Average gap between requests
system.mem_ctrls.avgMemAccLat                28512.32                       # Average memory access latency per DRAM burst
system.mem_ctrls.avgPriority_.writebacks::samples   5230333.00                       # Average QoS priority value for accepted requests
system.mem_ctrls.avgPriority_.cpu.inst::samples       574.00                       # Average QoS priority value for accepted requests
system.mem_ctrls.avgPriority_.cpu.data::samples   5263331.00                       # Average QoS priority value for accepted requests
system.mem_ctrls.avgQLat                      9762.32                       # Average queueing delay per DRAM burst
system.mem_ctrls.avgRdBW                       478.25                       # Average DRAM read bandwidth in MiByte/s
system.mem_ctrls.avgRdBWSys                    478.25                       # Average system read bandwidth in MiByte/s
system.mem_ctrls.avgRdQLen                       1.00                       # Average read queue length when enqueuing
system.mem_ctrls.avgWrBW                       475.20                       # Average achieved write bandwidth in MiByte/s
system.mem_ctrls.avgWrBWSys                    475.20                       # Average system write bandwidth in MiByte/s
system.mem_ctrls.avgWrQLen                      25.44                       # Average write queue length when enqueuing
system.mem_ctrls.busUtil                         7.45                       # Data bus utilization in percentage
system.mem_ctrls.busUtilRead                     3.74                       # Data bus utilization in percentage for reads
system.mem_ctrls.busUtilWrite                    3.71                       # Data bus utilization in percentage for writes
system.mem_ctrls.bw_inst_read::.cpu.inst        52151                       # Instruction read bandwidth from this memory (bytes/s)
system.mem_ctrls.bw_inst_read::total            52151                       # Instruction read bandwidth from this memory (bytes/s)
system.mem_ctrls.bw_read::.cpu.inst             52151                       # Total read bandwidth from this memory (bytes/s)
system.mem_ctrls.bw_read::.cpu.data         478198870                       # Total read bandwidth from this memory (bytes/s)
system.mem_ctrls.bw_read::total             478251021                       # Total read bandwidth from this memory (bytes/s)
system.mem_ctrls.bw_total::.writebacks      475200844                       # Total bandwidth to/from this memory (bytes/s)
system.mem_ctrls.bw_total::.cpu.inst            52151                       # Total bandwidth to/from this memory (bytes/s)
system.mem_ctrls.bw_total::.cpu.data        478198870                       # Total bandwidth to/from this memory (bytes/s)
system.mem_ctrls.bw_total::total            953451865                       # Total bandwidth to/from this memory (bytes/s)
system.mem_ctrls.bw_write::.writebacks      475200844                       # Write bandwidth from this memory (bytes/s)
system.mem_ctrls.bw_write::total            475200844                       # Write bandwidth from this memory (bytes/s)
system.mem_ctrls.bytesPerActivate::samples       824560                       # Bytes accessed per row activation
system.mem_ctrls.bytesPerActivate::mean    814.529698                       # Bytes accessed per row activation
system.mem_ctrls.bytesPerActivate::gmean   687.340486                       # Bytes accessed per row activation
system.mem_ctrls.bytesPerActivate::stdev   319.223089                       # Bytes accessed per row activation
system.mem_ctrls.bytesPerActivate::0-127        41862      5.08%      5.08% # Bytes accessed per row activation
system.mem_ctrls.bytesPerActivate::128-255        24590      2.98%      8.06% # Bytes accessed per row activation
system.mem_ctrls.bytesPerActivate::256-383        57991      7.03%     15.09% # Bytes accessed per row activation
system.mem_ctrls.bytesPerActivate::384-511        40081      4.86%     19.95% # Bytes accessed per row activation
system.mem_ctrls.bytesPerActivate::512-639        22720      2.76%     22.71% # Bytes accessed per row activation
system.mem_ctrls.bytesPerActivate::640-767        47073      5.71%     28.42% # Bytes accessed per row activation
system.mem_ctrls.bytesPerActivate::768-895        42887      5.20%     33.62% # Bytes accessed per row activation
system.mem_ctrls.bytesPerActivate::896-1023        46718      5.67%     39.28% # Bytes accessed per row activation
system.mem_ctrls.bytesPerActivate::1024-1151       500638     60.72%    100.00% # Bytes accessed per row activation
system.mem_ctrls.bytesPerActivate::total       824560                       # Bytes accessed per row activation
system.mem_ctrls.bytesReadDRAM              336889920                       # Total number of bytes read from DRAM
system.mem_ctrls.bytesReadSys               336889920                       # Total read bytes from the system interface side
system.mem_ctrls.bytesReadWrQ                       0                       # Total number of bytes read from write queue
system.mem_ctrls.bytesWritten               334739456                       # Total number of bytes written to DRAM
system.mem_ctrls.bytesWrittenSys            334741312                       # Total written bytes from the system interface side
system.mem_ctrls.bytes_inst_read::.cpu.inst        36736                       # Number of instructions bytes read from this memory
system.mem_ctrls.bytes_inst_read::total         36736                       # Number of instructions bytes read from this memory
system.mem_ctrls.bytes_read::.cpu.inst          36736                       # Number of bytes read from this memory
system.mem_ctrls.bytes_read::.cpu.data      336853184                       # Number of bytes read from this memory
system.mem_ctrls.bytes_read::total          336889920                       # Number of bytes read from this memory
system.mem_ctrls.bytes_written::.writebacks    334741312                       # Number of bytes written to this memory
system.mem_ctrls.bytes_written::total       334741312                       # Number of bytes written to this memory
[...]
system.mem_ctrls.wrQLenPdf::21                 326881                       # What write queue length does an incoming req see
system.mem_ctrls.wrQLenPdf::22                 326880                       # What write queue length does an incoming req see
system.mem_ctrls.wrQLenPdf::23                 326939                       # What write queue length does an incoming req see
system.mem_ctrls.wrQLenPdf::24                 326880                       # What write queue length does an incoming req see
system.mem_ctrls.wrQLenPdf::25                 326879                       # What write queue length does an incoming req see
system.mem_ctrls.wrQLenPdf::26                 326881                       # What write queue length does an incoming req see
system.mem_ctrls.wrQLenPdf::27                 326881                       # What write queue length does an incoming req see
system.mem_ctrls.wrQLenPdf::28                 326882                       # What write queue length does an incoming req see
system.mem_ctrls.wrQLenPdf::29                 326881                       # What write queue length does an incoming req see
system.mem_ctrls.wrQLenPdf::30                 326880                       # What write queue length does an incoming req see
system.mem_ctrls.wrQLenPdf::31                 326878                       # What write queue length does an incoming req see
system.mem_ctrls.wrQLenPdf::32                 326878                       # What write queue length does an incoming req see
system.mem_ctrls.wrQLenPdf::33                      0                       # What write queue length does an incoming req see
system.mem_ctrls.wrQLenPdf::34                      0                       # What write queue length does an incoming req see
system.mem_ctrls.wrQLenPdf::35                      0                       # What write queue length does an incoming req see
system.mem_ctrls.wrQLenPdf::36                      0                       # What write queue length does an incoming req see
system.mem_ctrls.wrQLenPdf::37                      0                       # What write queue length does an incoming req see
system.mem_ctrls.wrQLenPdf::38                      0                       # What write queue length does an incoming req see
system.mem_ctrls.wrQLenPdf::39                      0                       # What write queue length does an incoming req see
system.mem_ctrls.wrQLenPdf::40                      0                       # What write queue length does an incoming req see
system.mem_ctrls.wrQLenPdf::41                      0                       # What write queue length does an incoming req see
system.mem_ctrls.wrQLenPdf::42                      0                       # What write queue length does an incoming req see
system.mem_ctrls.wrQLenPdf::43                      0                       # What write queue length does an incoming req see
system.mem_ctrls.wrQLenPdf::44                      0                       # What write queue length does an incoming req see
system.mem_ctrls.wrQLenPdf::45                      0                       # What write queue length does an incoming req see
system.mem_ctrls.wrQLenPdf::46                      0                       # What write queue length does an incoming req see
system.mem_ctrls.wrQLenPdf::47                      0                       # What write queue length does an incoming req see
system.mem_ctrls.wrQLenPdf::48                      0                       # What write queue length does an incoming req see
system.mem_ctrls.wrQLenPdf::49                      0                       # What write queue length does an incoming req see
system.mem_ctrls.wrQLenPdf::50                      0                       # What write queue length does an incoming req see
system.mem_ctrls.wrQLenPdf::51                      0                       # What write queue length does an incoming req see
system.mem_ctrls.wrQLenPdf::52                      0                       # What write queue length does an incoming req see
system.mem_ctrls.wrQLenPdf::53                      0                       # What write queue length does an incoming req see
system.mem_ctrls.wrQLenPdf::54                      0                       # What write queue length does an incoming req see
system.mem_ctrls.wrQLenPdf::55                      0                       # What write queue length does an incoming req see
system.mem_ctrls.wrQLenPdf::56                      0                       # What write queue length does an incoming req see
system.mem_ctrls.wrQLenPdf::57                      0                       # What write queue length does an incoming req see
system.mem_ctrls.wrQLenPdf::58                      0                       # What write queue length does an incoming req see
system.mem_ctrls.wrQLenPdf::59                      0                       # What write queue length does an incoming req see
system.mem_ctrls.wrQLenPdf::60                      0                       # What write queue length does an incoming req see
system.mem_ctrls.wrQLenPdf::61                      0                       # What write queue length does an incoming req see
system.mem_ctrls.wrQLenPdf::62                      0                       # What write queue length does an incoming req see
system.mem_ctrls.wrQLenPdf::63                      0                       # What write queue length does an incoming req see
system.mem_ctrls.writeBursts                  5230333                       # Number of DRAM write bursts, including those merged in the write queue
system.mem_ctrls.writePktSize::0                    0                       # Write request sizes (log2)
system.mem_ctrls.writePktSize::1                    0                       # Write request sizes (log2)
system.mem_ctrls.writePktSize::2                    0                       # Write request sizes (log2)
system.mem_ctrls.writePktSize::3                    0                       # Write request sizes (log2)
system.mem_ctrls.writePktSize::4                    0                       # Write request sizes (log2)
system.mem_ctrls.writePktSize::5                    0                       # Write request sizes (log2)
system.mem_ctrls.writePktSize::6              5230333                       # Write request sizes (log2)
system.mem_ctrls.writeReqs                    5230333                       # Number of write requests accepted
system.mem_ctrls.writeRowHitRate                92.93                       # Row buffer hit rate for writes
system.mem_ctrls.writeRowHits                 4860501                       # Number of row buffer hits during writes
system.mem_ctrls_0.actBackEnergy         166052740290                       # Energy for active background per rank (pJ)
system.mem_ctrls_0.actEnergy               2943357900                       # Energy for activate commands per rank (pJ)
system.mem_ctrls_0.actPowerDownEnergy               0                       # Energy for active power-down per rank (pJ)
system.mem_ctrls_0.averagePower            552.621210                       # Core power per rank (mW)
system.mem_ctrls_0.memoryStateTime::IDLE 335265188750                       # Time in different power states
system.mem_ctrls_0.memoryStateTime::REF   23521940000                       # Time in different power states
system.mem_ctrls_0.memoryStateTime::SREF            0                       # Time in different power states
system.mem_ctrls_0.memoryStateTime::PRE_PDN            0                       # Time in different power states
system.mem_ctrls_0.memoryStateTime::ACT  345633573250                       # Time in different power states
system.mem_ctrls_0.memoryStateTime::ACT_PDN            0                       # Time in different power states
system.mem_ctrls_0.preBackEnergy         130663663200                       # Energy for precharge background per rank (pJ)
system.mem_ctrls_0.preEnergy               1564428030                       # Energy for precharge commands per rank (pJ)
system.mem_ctrls_0.prePowerDownEnergy               0                       # Energy for precharge power-down per rank (pJ)
system.mem_ctrls_0.readEnergy             18794964720                       # Energy for read commands per rank (pJ)
system.mem_ctrls_0.refreshEnergy         55605866160.000008                       # Energy for refresh commands per rank (pJ)
system.mem_ctrls_0.selfRefreshEnergy                0                       # Energy for self refresh per rank (pJ)
system.mem_ctrls_0.totalEnergy           389277820680                       # Total energy per rank (pJ)
system.mem_ctrls_0.totalIdleTime                    0                       # Total Idle time Per DRAM Rank
system.mem_ctrls_0.writeEnergy            13652800380                       # Energy for write commands per rank (pJ)
system.mem_ctrls_1.actBackEnergy         166285374390                       # Energy for active background per rank (pJ)
system.mem_ctrls_1.actEnergy               2944007640                       # Energy for activate commands per rank (pJ)
system.mem_ctrls_1.actPowerDownEnergy               0                       # Energy for active power-down per rank (pJ)
system.mem_ctrls_1.averagePower            552.661909                       # Core power per rank (mW)
system.mem_ctrls_1.memoryStateTime::IDLE 334766791500                       # Time in different power states
system.mem_ctrls_1.memoryStateTime::REF   23521940000                       # Time in different power states
system.mem_ctrls_1.memoryStateTime::SREF            0                       # Time in different power states
system.mem_ctrls_1.memoryStateTime::PRE_PDN            0                       # Time in different power states
system.mem_ctrls_1.memoryStateTime::ACT  346131970500                       # Time in different power states
system.mem_ctrls_1.memoryStateTime::ACT_PDN            0                       # Time in different power states
system.mem_ctrls_1.preBackEnergy         130467760800                       # Energy for precharge background per rank (pJ)
system.mem_ctrls_1.preEnergy               1564777170                       # Energy for precharge commands per rank (pJ)
system.mem_ctrls_1.prePowerDownEnergy               0                       # Energy for precharge power-down per rank (pJ)
system.mem_ctrls_1.readEnergy             18789316980                       # Energy for read commands per rank (pJ)
system.mem_ctrls_1.refreshEnergy         55605866160.000008                       # Energy for refresh commands per rank (pJ)
system.mem_ctrls_1.selfRefreshEnergy                0                       # Energy for self refresh per rank (pJ)
system.mem_ctrls_1.totalEnergy           389306489640                       # Total energy per rank (pJ)
system.mem_ctrls_1.totalIdleTime                    0                       # Total Idle time Per DRAM Rank
system.mem_ctrls_1.writeEnergy            13649386500                       # Energy for write commands per rank (pJ)
system.membus.pkt_count_system.l2.mem_side::system.mem_ctrls.port     15758480                       # Packet count per connected master and slave (bytes)
system.membus.pkt_count::total               15758480                       # Packet count per connected master and slave (bytes)
system.membus.pkt_size_system.l2.mem_side::system.mem_ctrls.port    671631232                       # Cumulative packet size per connected master and slave (bytes)
system.membus.pkt_size::total               671631232                       # Cumulative packet size per connected master and slave (bytes)
system.membus.pwrStateResidencyTicks::UNDEFINED 704420702000                       # Cumulative time (in ticks) in various power states
system.membus.reqLayer0.occupancy         31415911995                       # Layer occupancy (ticks)
system.membus.reqLayer0.utilization               4.5                       # Layer utilization (%)
system.membus.respLayer1.occupancy        27694854999                       # Layer occupancy (ticks)
system.membus.respLayer1.utilization              3.9                       # Layer utilization (%)
system.membus.snoopTraffic                          0                       # Total snoop traffic (bytes)
system.membus.snoop_fanout::samples           5263905                       # Request fanout histogram
system.membus.snoop_fanout::mean                    0                       # Request fanout histogram
system.membus.snoop_fanout::stdev                   0                       # Request fanout histogram
system.membus.snoop_fanout::underflows              0      0.00%      0.00% # Request fanout histogram
system.membus.snoop_fanout::0                 5263905    100.00%    100.00% # Request fanout histogram
system.membus.snoop_fanout::1                       0      0.00%    100.00% # Request fanout histogram
system.membus.snoop_fanout::overflows               0      0.00%    100.00% # Request fanout histogram
system.membus.snoop_fanout::min_value               0                       # Request fanout histogram
system.membus.snoop_fanout::max_value               0                       # Request fanout histogram
system.membus.snoop_fanout::total             5263905                       # Request fanout histogram
system.membus.snoop_filter.hit_multi_requests            0                       # Number of requests hitting in the snoop filter with multiple (>1) holders of the requested data.
system.membus.snoop_filter.hit_multi_snoops            0                       # Number of snoops hitting in the snoop filter with multiple (>1) holders of the requested data.
system.membus.snoop_filter.hit_single_requests      5230681                       # Number of requests hitting in the snoop filter with a single holder of the requested data.
system.membus.snoop_filter.hit_single_snoops            0                       # Number of snoops hitting in the snoop filter with a single holder of the requested data.
system.membus.snoop_filter.tot_requests      10494575                       # Total number of requests made to the snoop filter.
system.membus.snoop_filter.tot_snoops               0                       # Total number of snoops made to the snoop filter.
system.membus.snoops                                0                       # Total snoops (count)
system.membus.trans_dist::ReadResp                832                       # Transaction distribution
system.membus.trans_dist::WritebackDirty      5230333                       # Transaction distribution
system.membus.trans_dist::CleanEvict              337                       # Transaction distribution
system.membus.trans_dist::ReadExReq           5263073                       # Transaction distribution
system.membus.trans_dist::ReadExResp          5263073                       # Transaction distribution
system.membus.trans_dist::ReadSharedReq           832                       # Transaction distribution
system.tol2bus.pkt_count_system.cpu.icache.mem_side::system.l2.cpu_side         1374                       # Packet count per connected master and slave (bytes)
system.tol2bus.pkt_count_system.cpu.dcache.mem_side::system.l2.cpu_side     15789161                       # Packet count per connected master and slave (bytes)
system.tol2bus.pkt_count::total              15790535                       # Packet count per connected master and slave (bytes)
system.tol2bus.pkt_size_system.cpu.icache.mem_side::system.l2.cpu_side        48896                       # Cumulative packet size per connected master and slave (bytes)
system.tol2bus.pkt_size_system.cpu.dcache.mem_side::system.l2.cpu_side    673631808                       # Cumulative packet size per connected master and slave (bytes)
system.tol2bus.pkt_size::total              673680704                       # Cumulative packet size per connected master and slave (bytes)
system.tol2bus.pwrStateResidencyTicks::UNDEFINED 704420702000                       # Cumulative time (in ticks) in various power states
system.tol2bus.reqLayer0.occupancy        21051042000                       # Layer occupancy (ticks)
system.tol2bus.reqLayer0.utilization              3.0                       # Layer utilization (%)
system.tol2bus.respLayer0.occupancy           1832997                       # Layer occupancy (ticks)
system.tol2bus.respLayer0.utilization             0.0                       # Layer utilization (%)
system.tol2bus.respLayer1.occupancy       15790188996                       # Layer occupancy (ticks)
system.tol2bus.respLayer1.utilization             2.2                       # Layer utilization (%)
system.tol2bus.snoopTraffic                 334741312                       # Total snoop traffic (bytes)
system.tol2bus.snoop_fanout::samples         10495241                       # Request fanout histogram
system.tol2bus.snoop_fanout::mean            0.000059                       # Request fanout histogram
system.tol2bus.snoop_fanout::stdev           0.007698                       # Request fanout histogram
system.tol2bus.snoop_fanout::underflows             0      0.00%      0.00% # Request fanout histogram
system.tol2bus.snoop_fanout::0               10494619     99.99%     99.99% # Request fanout histogram
system.tol2bus.snoop_fanout::1                    622      0.01%    100.00% # Request fanout histogram
system.tol2bus.snoop_fanout::2                      0      0.00%    100.00% # Request fanout histogram
system.tol2bus.snoop_fanout::overflows              0      0.00%    100.00% # Request fanout histogram
system.tol2bus.snoop_fanout::min_value              0                       # Request fanout histogram
system.tol2bus.snoop_fanout::max_value              1                       # Request fanout histogram
system.tol2bus.snoop_fanout::total           10495241                       # Request fanout histogram
system.tol2bus.snoop_filter.hit_multi_requests           56                       # Number of requests hitting in the snoop filter with multiple (>1) holders of the requested data.
system.tol2bus.snoop_filter.hit_multi_snoops            0                       # Number of snoops hitting in the snoop filter with multiple (>1) holders of the requested data.
system.tol2bus.snoop_filter.hit_single_requests      5262525                       # Number of requests hitting in the snoop filter with a single holder of the requested data.
system.tol2bus.snoop_filter.hit_single_snoops          566                       # Number of snoops hitting in the snoop filter with a single holder of the requested data.
system.tol2bus.snoop_filter.tot_requests     10526530                       # Total number of requests made to the snoop filter.
system.tol2bus.snoop_filter.tot_snoops            566                       # Total number of snoops made to the snoop filter.
system.tol2bus.snoops                         5231236                       # Total snoops (count)
system.tol2bus.trans_dist::ReadResp               920                       # Transaction distribution
system.tol2bus.trans_dist::WritebackDirty     10492435                       # Transaction distribution
system.tol2bus.trans_dist::WritebackClean          154                       # Transaction distribution
system.tol2bus.trans_dist::CleanEvict            1172                       # Transaction distribution
system.tol2bus.trans_dist::ReadExReq          5263085                       # Transaction distribution
system.tol2bus.trans_dist::ReadExResp         5263085                       # Transaction distribution
system.tol2bus.trans_dist::ReadCleanReq           610                       # Transaction distribution
system.tol2bus.trans_dist::ReadSharedReq          310                       # Transaction distribution
system.voltage_domain.voltage                       1                       # Voltage in Volts

---------- End Simulation Statistics   ----------
