
---------- Begin Simulation Statistics ----------
final_tick                               263807132000                       # Number of ticks from beginning of simulation (restored from checkpoints and never reset)
host_inst_rate                                 210220                       # Simulator instruction rate (inst/s)
host_mem_usage                                 742264                       # Number of bytes of host memory used
host_op_rate                                   210227                       # Simulator op (including micro ops) rate (op/s)
host_seconds                                   475.69                       # Real time elapsed on the host
host_tick_rate                              554574710                       # Simulator tick rate (ticks/s)
sim_freq                                 1000000000000                       # Frequency of simulated ticks
sim_insts                                   100000001                       # Number of instructions simulated
sim_ops                                     100003539                       # Number of ops (including micro ops) simulated
sim_seconds                                  0.263807                       # Number of seconds simulated
sim_ticks                                263807132000                       # Number of ticks simulated
system.clk_domain.clock                          1000                       # Clock period in ticks
system.cpu.branchPred.BTBCorrect                    0                       # Number of correct BTB predictions (this stat may not work properly.
system.cpu.branchPred.BTBHitPct             99.551860                       # BTB Hit Percentage
system.cpu.branchPred.BTBHits                  596903                       # Number of BTB hits
system.cpu.branchPred.BTBLookups               599590                       # Number of BTB lookups
system.cpu.branchPred.RASInCorrect                  7                       # Number of incorrect RAS predictions.
system.cpu.branchPred.condIncorrect               822                       # Number of conditional branches incorrect
system.cpu.branchPred.condPredicted            599811                       # Number of conditional branches predicted
system.cpu.branchPred.indirectHits                155                       # Number of indirect target hits.
system.cpu.branchPred.indirectLookups             358                       # Number of indirect predictor lookups.
system.cpu.branchPred.indirectMisses              203                       # Number of indirect misses.
system.cpu.branchPred.lookups                  601775                       # Number of BP lookups
system.cpu.branchPred.usedRAS                     559                       # Number of times the RAS was used to get a target.
system.cpu.branchPredindirectMispredicted          114                       # Number of mispredicted indirect branches.
system.cpu.committedInsts                   100000001                       # Number of instructions committed
system.cpu.committedOps                     100003539                       # Number of ops (including micro ops) committed
system.cpu.cpi                               2.638071                       # CPI: cycles per instruction
system.cpu.dcache.LoadLockedReq_accesses::.cpu.data           14                       # number of LoadLockedReq accesses(hits+misses)
system.cpu.dcache.LoadLockedReq_accesses::total           14                       # number of LoadLockedReq accesses(hits+misses)
system.cpu.dcache.LoadLockedReq_avg_miss_latency::.cpu.data        95000                       # average LoadLockedReq miss latency
system.cpu.dcache.LoadLockedReq_avg_miss_latency::total        95000                       # average LoadLockedReq miss latency
system.cpu.dcache.LoadLockedReq_avg_mshr_miss_latency::.cpu.data        93000                       # average LoadLockedReq mshr miss latency
system.cpu.dcache.LoadLockedReq_avg_mshr_miss_latency::total        93000                       # average LoadLockedReq mshr miss latency
system.cpu.dcache.LoadLockedReq_hits::.cpu.data           13                       # number of LoadLockedReq hits
system.cpu.dcache.LoadLockedReq_hits::total           13                       # number of LoadLockedReq hits
system.cpu.dcache.LoadLockedReq_miss_latency::.cpu.data        95000                       # number of LoadLockedReq miss cycles
system.cpu.dcache.LoadLockedReq_miss_latency::total        95000                       # number of LoadLockedReq miss cycles
system.cpu.dcache.LoadLockedReq_miss_rate::.cpu.data     0.071429                       # miss rate for LoadLockedReq accesses
system.cpu.dcache.LoadLockedReq_miss_rate::total     0.071429                       # miss rate for LoadLockedReq accesses
system.cpu.dcache.LoadLockedReq_misses::.cpu.data            1                       # number of LoadLockedReq misses
system.cpu.dcache.LoadLockedReq_misses::total            1                       # number of LoadLockedReq misses
system.cpu.dcache.LoadLockedReq_mshr_miss_latency::.cpu.data        93000                       # number of LoadLockedReq MSHR miss cycles
system.cpu.dcache.LoadLockedReq_mshr_miss_latency::total        93000                       # number of LoadLockedReq MSHR miss cycles
system.cpu.dcache.LoadLockedReq_mshr_miss_rate::.cpu.data     0.071429                       # mshr miss rate for LoadLockedReq accesses
system.cpu.dcache.LoadLockedReq_mshr_miss_rate::total     0.071429                       # mshr miss rate for LoadLockedReq accesses
system.cpu.dcache.LoadLockedReq_mshr_misses::.cpu.data            1                       # number of LoadLockedReq MSHR misses
system.cpu.dcache.LoadLockedReq_mshr_misses::total            1                       # number of LoadLockedReq MSHR misses
system.cpu.dcache.ReadReq_accesses::.cpu.data     35711023                       # number of ReadReq accesses(hits+misses)
system.cpu.dcache.ReadReq_accesses::total     35711023                       # number of ReadReq accesses(hits+misses)
system.cpu.dcache.ReadReq_avg_miss_latency::.cpu.data 45947.162093                       # average ReadReq miss latency
system.cpu.dcache.ReadReq_avg_miss_latency::total 45947.162093                       # average ReadReq miss latency
system.cpu.dcache.ReadReq_avg_mshr_miss_latency::.cpu.data 43912.680140                       # average ReadReq mshr miss latency
system.cpu.dcache.ReadReq_avg_mshr_miss_latency::total 43912.680140                       # average ReadReq mshr miss latency
system.cpu.dcache.ReadReq_hits::.cpu.data     35699289                       # number of ReadReq hits
system.cpu.dcache.ReadReq_hits::total        35699289                       # number of ReadReq hits
system.cpu.dcache.ReadReq_miss_latency::.cpu.data    539144000                       # number of ReadReq miss cycles
system.cpu.dcache.ReadReq_miss_latency::total    539144000                       # number of ReadReq miss cycles
system.cpu.dcache.ReadReq_miss_rate::.cpu.data     0.000329                       # miss rate for ReadReq accesses
system.cpu.dcache.ReadReq_miss_rate::total     0.000329                       # miss rate for ReadReq accesses
system.cpu.dcache.ReadReq_misses::.cpu.data        11734                       # number of ReadReq misses
system.cpu.dcache.ReadReq_misses::total         11734                       # number of ReadReq misses
system.cpu.dcache.ReadReq_mshr_hits::.cpu.data            7                       # number of ReadReq MSHR hits
system.cpu.dcache.ReadReq_mshr_hits::total            7                       # number of ReadReq MSHR hits
system.cpu.dcache.ReadReq_mshr_miss_latency::.cpu.data    514964000                       # number of ReadReq MSHR miss cycles
system.cpu.dcache.ReadReq_mshr_miss_latency::total    514964000                       # number of ReadReq MSHR miss cycles
system.cpu.dcache.ReadReq_mshr_miss_rate::.cpu.data     0.000328                       # mshr miss rate for ReadReq accesses
system.cpu.dcache.ReadReq_mshr_miss_rate::total     0.000328                       # mshr miss rate for ReadReq accesses
system.cpu.dcache.ReadReq_mshr_misses::.cpu.data        11727                       # number of ReadReq MSHR misses
system.cpu.dcache.ReadReq_mshr_misses::total        11727                       # number of ReadReq MSHR misses
system.cpu.dcache.SoftPFReq_accesses::.cpu.data           46                       # number of SoftPFReq accesses(hits+misses)
system.cpu.dcache.SoftPFReq_accesses::total           46                       # number of SoftPFReq accesses(hits+misses)
system.cpu.dcache.SoftPFReq_avg_mshr_miss_latency::.cpu.data       104500                       # average SoftPFReq mshr miss latency
system.cpu.dcache.SoftPFReq_avg_mshr_miss_latency::total       104500                       # average SoftPFReq mshr miss latency
system.cpu.dcache.SoftPFReq_hits::.cpu.data           32                       # number of SoftPFReq hits
system.cpu.dcache.SoftPFReq_hits::total            32                       # number of SoftPFReq hits
system.cpu.dcache.SoftPFReq_miss_rate::.cpu.data     0.304348                       # miss rate for SoftPFReq accesses
system.cpu.dcache.SoftPFReq_miss_rate::total     0.304348                       # miss rate for SoftPFReq accesses
system.cpu.dcache.SoftPFReq_misses::.cpu.data           14                       # number of SoftPFReq misses
system.cpu.dcache.SoftPFReq_misses::total           14                       # number of SoftPFReq misses
system.cpu.dcache.SoftPFReq_mshr_miss_latency::.cpu.data      1045000                       # number of SoftPFReq MSHR miss cycles
system.cpu.dcache.SoftPFReq_mshr_miss_latency::total      1045000                       # number of SoftPFReq MSHR miss cycles
system.cpu.dcache.SoftPFReq_mshr_miss_rate::.cpu.data     0.217391                       # mshr miss rate for SoftPFReq accesses
system.cpu.dcache.SoftPFReq_mshr_miss_rate::total     0.217391                       # mshr miss rate for SoftPFReq accesses
system.cpu.dcache.SoftPFReq_mshr_misses::.cpu.data           10                       # number of SoftPFReq MSHR misses
system.cpu.dcache.SoftPFReq_mshr_misses::total           10                       # number of SoftPFReq MSHR misses
system.cpu.dcache.StoreCondReq_accesses::.cpu.data           14                       # number of StoreCondReq accesses(hits+misses)
system.cpu.dcache.StoreCondReq_accesses::total           14                       # number of StoreCondReq accesses(hits+misses)
system.cpu.dcache.StoreCondReq_hits::.cpu.data           14                       # number of StoreCondReq hits
system.cpu.dcache.StoreCondReq_hits::total           14                       # number of StoreCondReq hits
system.cpu.dcache.WriteReq_accesses::.cpu.data     13095625                       # number of WriteReq accesses(hits+misses)
system.cpu.dcache.WriteReq_accesses::total     13095625                       # number of WriteReq accesses(hits+misses)
system.cpu.dcache.WriteReq_avg_miss_latency::.cpu.data 101073.691108                       # average WriteReq miss latency
system.cpu.dcache.WriteReq_avg_miss_latency::total 101073.691108                       # average WriteReq miss latency
system.cpu.dcache.WriteReq_avg_mshr_miss_latency::.cpu.data 104374.390688                       # average WriteReq mshr miss latency
system.cpu.dcache.WriteReq_avg_mshr_miss_latency::total 104374.390688                       # average WriteReq mshr miss latency
system.cpu.dcache.WriteReq_hits::.cpu.data     10102808                       # number of WriteReq hits
system.cpu.dcache.WriteReq_hits::total       10102808                       # number of WriteReq hits
system.cpu.dcache.WriteReq_miss_latency::.cpu.data 302495061000                       # number of WriteReq miss cycles
system.cpu.dcache.WriteReq_miss_latency::total 302495061000                       # number of WriteReq miss cycles
system.cpu.dcache.WriteReq_miss_rate::.cpu.data     0.228536                       # miss rate for WriteReq accesses
system.cpu.dcache.WriteReq_miss_rate::total     0.228536                       # miss rate for WriteReq accesses
system.cpu.dcache.WriteReq_misses::.cpu.data      2992817                       # number of WriteReq misses
system.cpu.dcache.WriteReq_misses::total      2992817                       # number of WriteReq misses
system.cpu.dcache.WriteReq_mshr_hits::.cpu.data      1496252                       # number of WriteReq MSHR hits
system.cpu.dcache.WriteReq_mshr_hits::total      1496252                       # number of WriteReq MSHR hits
system.cpu.dcache.WriteReq_mshr_miss_latency::.cpu.data 156203060000                       # number of WriteReq MSHR miss cycles
system.cpu.dcache.WriteReq_mshr_miss_latency::total 156203060000                       # number of WriteReq MSHR miss cycles
system.cpu.dcache.WriteReq_mshr_miss_rate::.cpu.data     0.114280                       # mshr miss rate for WriteReq accesses
system.cpu.dcache.WriteReq_mshr_miss_rate::total     0.114280                       # mshr miss rate for WriteReq accesses
system.cpu.dcache.WriteReq_mshr_misses::.cpu.data      1496565                       # number of WriteReq MSHR misses
system.cpu.dcache.WriteReq_mshr_misses::total      1496565                       # number of WriteReq MSHR misses
system.cpu.dcache.avg_blocked_cycles::no_mshrs          nan                       # average number of cycles each access was blocked
system.cpu.dcache.avg_blocked_cycles::no_targets          nan                       # average number of cycles each access was blocked
system.cpu.dcache.blocked::no_mshrs                 0                       # number of cycles access was blocked
system.cpu.dcache.blocked::no_targets               0                       # number of cycles access was blocked
system.cpu.dcache.blocked_cycles::no_mshrs            0                       # number of cycles access was blocked
system.cpu.dcache.blocked_cycles::no_targets            0                       # number of cycles access was blocked
system.cpu.dcache.demand_accesses::.cpu.data     48806648                       # number of demand (read+write) accesses
system.cpu.dcache.demand_accesses::total     48806648                       # number of demand (read+write) accesses
system.cpu.dcache.demand_avg_miss_latency::.cpu.data 100858.399475                       # average overall miss latency
system.cpu.dcache.demand_avg_miss_latency::total 100858.399475                       # average overall miss latency
system.cpu.dcache.demand_avg_mshr_miss_latency::.cpu.data 103904.299698                       # average overall mshr miss latency
system.cpu.dcache.demand_avg_mshr_miss_latency::total 103904.299698                       # average overall mshr miss latency
system.cpu.dcache.demand_hits::.cpu.data     45802097                       # number of demand (read+write) hits
system.cpu.dcache.demand_hits::total         45802097                       # number of demand (read+write) hits
system.cpu.dcache.demand_miss_latency::.cpu.data 303034205000                       # number of demand (read+write) miss cycles
system.cpu.dcache.demand_miss_latency::total 303034205000                       # number of demand (read+write) miss cycles
system.cpu.dcache.demand_miss_rate::.cpu.data     0.061560                       # miss rate for demand accesses
system.cpu.dcache.demand_miss_rate::total     0.061560                       # miss rate for demand accesses
system.cpu.dcache.demand_misses::.cpu.data      3004551                       # number of demand (read+write) misses
system.cpu.dcache.demand_misses::total        3004551                       # number of demand (read+write) misses
system.cpu.dcache.demand_mshr_hits::.cpu.data      1496259                       # number of demand (read+write) MSHR hits
system.cpu.dcache.demand_mshr_hits::total      1496259                       # number of demand (read+write) MSHR hits
system.cpu.dcache.demand_mshr_miss_latency::.cpu.data 156718024000                       # number of demand (read+write) MSHR miss cycles
system.cpu.dcache.demand_mshr_miss_latency::total 156718024000                       # number of demand (read+write) MSHR miss cycles
system.cpu.dcache.demand_mshr_miss_rate::.cpu.data     0.030903                       # mshr miss rate for demand accesses
system.cpu.dcache.demand_mshr_miss_rate::total     0.030903                       # mshr miss rate for demand accesses
system.cpu.dcache.demand_mshr_misses::.cpu.data      1508292                       # number of demand (read+write) MSHR misses
system.cpu.dcache.demand_mshr_misses::total      1508292                       # number of demand (read+write) MSHR misses
system.cpu.dcache.overall_accesses::.cpu.data     48806694                       # number of overall (read+write) accesses
system.cpu.dcache.overall_accesses::total     48806694                       # number of overall (read+write) accesses
system.cpu.dcache.overall_avg_miss_latency::.cpu.data 100857.929517                       # average overall miss latency
system.cpu.dcache.overall_avg_miss_latency::total 100857.929517                       # average overall miss latency
system.cpu.dcache.overall_avg_mshr_miss_latency::.cpu.data 103904.303647                       # average overall mshr miss latency
system.cpu.dcache.overall_avg_mshr_miss_latency::total 103904.303647                       # average overall mshr miss latency
system.cpu.dcache.overall_hits::.cpu.data     45802129                       # number of overall hits
system.cpu.dcache.overall_hits::total        45802129                       # number of overall hits
system.cpu.dcache.overall_miss_latency::.cpu.data 303034205000                       # number of overall miss cycles
system.cpu.dcache.overall_miss_latency::total 303034205000                       # number of overall miss cycles
system.cpu.dcache.overall_miss_rate::.cpu.data     0.061561                       # miss rate for overall accesses
system.cpu.dcache.overall_miss_rate::total     0.061561                       # miss rate for overall accesses
system.cpu.dcache.overall_misses::.cpu.data      3004565                       # number of overall misses
system.cpu.dcache.overall_misses::total       3004565                       # number of overall misses
system.cpu.dcache.overall_mshr_hits::.cpu.data      1496259                       # number of overall MSHR hits
system.cpu.dcache.overall_mshr_hits::total      1496259                       # number of overall MSHR hits
system.cpu.dcache.overall_mshr_miss_latency::.cpu.data 156719069000                       # number of overall MSHR miss cycles
system.cpu.dcache.overall_mshr_miss_latency::total 156719069000                       # number of overall MSHR miss cycles
system.cpu.dcache.overall_mshr_miss_rate::.cpu.data     0.030904                       # mshr miss rate for overall accesses
system.cpu.dcache.overall_mshr_miss_rate::total     0.030904                       # mshr miss rate for overall accesses
system.cpu.dcache.overall_mshr_misses::.cpu.data      1508302                       # number of overall MSHR misses
system.cpu.dcache.overall_mshr_misses::total      1508302                       # number of overall MSHR misses
system.cpu.dcache.pwrStateResidencyTicks::UNDEFINED 263807132000                       # Cumulative time (in ticks) in various power states
system.cpu.dcache.replacements                1507279                       # number of replacements
system.cpu.dcache.tags.age_task_id_blocks_1024::0           56                       # Occupied blocks per task id
system.cpu.dcache.tags.age_task_id_blocks_1024::1          506                       # Occupied blocks per task id
system.cpu.dcache.tags.age_task_id_blocks_1024::2          462                       # Occupied blocks per task id
system.cpu.dcache.tags.avg_refs             31.366681                       # Average number of references to valid blocks.
system.cpu.dcache.tags.data_accesses         50315025                       # Number of data accesses
system.cpu.dcache.tags.occ_blocks::.cpu.data  1023.429421                       # Average occupied blocks per requestor
system.cpu.dcache.tags.occ_percent::.cpu.data     0.999443                       # Average percentage of cache occupancy
system.cpu.dcache.tags.occ_percent::total     0.999443                       # Average percentage of cache occupancy
system.cpu.dcache.tags.occ_task_id_blocks::1024         1024                       # Occupied blocks per task id
system.cpu.dcache.tags.occ_task_id_percent::1024            1                       # Percentage of cache occupancy per task id
system.cpu.dcache.tags.pwrStateResidencyTicks::UNDEFINED 263807132000                       # Cumulative time (in ticks) in various power states
system.cpu.dcache.tags.sampled_refs           1508303                       # Sample count of references to valid blocks.
system.cpu.dcache.tags.tag_accesses          50315025                       # Number of tag accesses
system.cpu.dcache.tags.tagsinuse          1023.429421                       # Cycle average of tags in use
system.cpu.dcache.tags.total_refs            47310459                       # Total number of references to valid blocks.
system.cpu.dcache.tags.warmup_cycle            240000                       # Cycle when the warmup percentage was hit.
system.cpu.dcache.writebacks::.writebacks      1501369                       # number of writebacks
system.cpu.dcache.writebacks::total           1501369                       # number of writebacks
system.cpu.discardedOps                          2517                       # Number of ops (including micro ops) which were discarded before commit
system.cpu.dstage2_mmu.stage2_tlb.accesses            0                       # DTB accesses
system.cpu.dstage2_mmu.stage2_tlb.align_faults            0                       # Number of TLB faults due to alignment restrictions
system.cpu.dstage2_mmu.stage2_tlb.domain_faults            0                       # Number of TLB faults due to domain restrictions
system.cpu.dstage2_mmu.stage2_tlb.flush_entries            0                       # Number of entries that have been flushed from TLB
system.cpu.dstage2_mmu.stage2_tlb.flush_tlb            0                       # Number of times complete TLB was flushed
system.cpu.dstage2_mmu.stage2_tlb.flush_tlb_asid            0                       # Number of times TLB was flushed by ASID
system.cpu.dstage2_mmu.stage2_tlb.flush_tlb_mva            0                       # Number of times TLB was flushed by MVA
system.cpu.dstage2_mmu.stage2_tlb.flush_tlb_mva_asid            0                       # Number of times TLB was flushed by MVA & ASID
system.cpu.dstage2_mmu.stage2_tlb.hits              0                       # DTB hits
system.cpu.dstage2_mmu.stage2_tlb.inst_accesses            0                       # ITB inst accesses
system.cpu.dstage2_mmu.stage2_tlb.inst_hits            0                       # ITB inst hits
system.cpu.dstage2_mmu.stage2_tlb.inst_misses            0                       # ITB inst misses
system.cpu.dstage2_mmu.stage2_tlb.misses            0                       # DTB misses
system.cpu.dstage2_mmu.stage2_tlb.perms_faults            0                       # Number of TLB faults due to permissions restrictions
system.cpu.dstage2_mmu.stage2_tlb.prefetch_faults            0                       # Number of TLB faults due to prefetch
system.cpu.dstage2_mmu.stage2_tlb.read_accesses            0                       # DTB read accesses
system.cpu.dstage2_mmu.stage2_tlb.read_hits            0                       # DTB read hits
system.cpu.dstage2_mmu.stage2_tlb.read_misses            0                       # DTB read misses
system.cpu.dstage2_mmu.stage2_tlb.walker.pwrStateResidencyTicks::UNDEFINED 263807132000                       # Cumulative time (in ticks) in various power states
system.cpu.dstage2_mmu.stage2_tlb.walker.walkRequestOrigin_Requested::Data            0                       # Table walker requests started/completed, data/inst
system.cpu.dstage2_mmu.stage2_tlb.walker.walkRequestOrigin_Requested::Inst            0                       # Table walker requests started/completed, data/inst
system.cpu.dstage2_mmu.stage2_tlb.walker.walkRequestOrigin_Requested::total            0                       # Table walker requests started/completed, data/inst
system.cpu.dstage2_mmu.stage2_tlb.walker.walkRequestOrigin_Completed::Data            0                       # Table walker requests started/completed, data/inst
system.cpu.dstage2_mmu.stage2_tlb.walker.walkRequestOrigin_Completed::Inst            0                       # Table walker requests started/completed, data/inst
system.cpu.dstage2_mmu.stage2_tlb.walker.walkRequestOrigin_Completed::total            0                       # Table walker requests started/completed, data/inst
system.cpu.dstage2_mmu.stage2_tlb.walker.walkRequestOrigin::total            0                       # Table walker requests started/completed, data/inst
system.cpu.dstage2_mmu.stage2_tlb.walker.walks            0                       # Table walker walks requested
system.cpu.dstage2_mmu.stage2_tlb.write_accesses            0                       # DTB write accesses
system.cpu.dstage2_mmu.stage2_tlb.write_hits            0                       # DTB write hits
system.cpu.dstage2_mmu.stage2_tlb.write_misses            0                       # DTB write misses
system.cpu.dtb.accesses                             0                       # DTB accesses
system.cpu.dtb.align_faults                         0                       # Number of TLB faults due to alignment restrictions
system.cpu.dtb.domain_faults                        0                       # Number of TLB faults due to domain restrictions
system.cpu.dtb.flush_entries                        0                       # Number of entries that have been flushed from TLB
system.cpu.dtb.flush_tlb                            0                       # Number of times complete TLB was flushed
system.cpu.dtb.flush_tlb_asid                       0                       # Number of times TLB was flushed by ASID
system.cpu.dtb.flush_tlb_mva                        0                       # Number of times TLB was flushed by MVA
system.cpu.dtb.flush_tlb_mva_asid                   0                       # Number of times TLB was flushed by MVA & ASID
system.cpu.dtb.hits                                 0                       # DTB hits
system.cpu.dtb.inst_accesses                        0                       # ITB inst accesses
system.cpu.dtb.inst_hits                            0                       # ITB inst hits
system.cpu.dtb.inst_misses                          0                       # ITB inst misses
system.cpu.dtb.misses                               0                       # DTB misses
system.cpu.dtb.perms_faults                         0                       # Number of TLB faults due to permissions restrictions
system.cpu.dtb.prefetch_faults                      0                       # Number of TLB faults due to prefetch
system.cpu.dtb.read_accesses                        0                       # DTB read accesses
system.cpu.dtb.read_hits                            0                       # DTB read hits
system.cpu.dtb.read_misses                          0                       # DTB read misses
system.cpu.dtb.walker.pwrStateResidencyTicks::UNDEFINED 263807132000                       # Cumulative time (in ticks) in various power states
system.cpu.dtb.walker.walkRequestOrigin_Requested::Data            0                       # Table walker requests started/completed, data/inst
system.cpu.dtb.walker.walkRequestOrigin_Requested::Inst            0                       # Table walker requests started/completed, data/inst
system.cpu.dtb.walker.walkRequestOrigin_Requested::total            0                       # Table walker requests started/completed, data/inst
system.cpu.dtb.walker.walkRequestOrigin_Completed::Data            0                       # Table walker requests started/completed, data/inst
system.cpu.dtb.walker.walkRequestOrigin_Completed::Inst            0                       # Table walker requests started/completed, data/inst
system.cpu.dtb.walker.walkRequestOrigin_Completed::total            0                       # Table walker requests started/completed, data/inst
system.cpu.dtb.walker.walkRequestOrigin::total            0                       # Table walker requests started/completed, data/inst
system.cpu.dtb.walker.walks                         0                       # Table walker walks requested
system.cpu.dtb.write_accesses                       0                       # DTB write accesses
system.cpu.dtb.write_hits                           0                       # DTB write hits
system.cpu.dtb.write_misses                         0                       # DTB write misses
system.cpu.fetch2.amo_instructions                  0                       # Number of memory atomic instructions successfully decoded
system.cpu.fetch2.fp_instructions                   0                       # Number of floating point instructions successfully decoded
system.cpu.fetch2.int_instructions           49411362                       # Number of integer instructions successfully decoded
system.cpu.fetch2.load_instructions          36901094                       # Number of memory load instructions successfully decoded
system.cpu.fetch2.store_instructions         13094534                       # Number of memory store instructions successfully decoded
system.cpu.fetch2.vec_instructions                  0                       # Number of SIMD instructions successfully decoded
system.cpu.icache.ReadReq_accesses::.cpu.inst      5364427                       # number of ReadReq accesses(hits+misses)
system.cpu.icache.ReadReq_accesses::total      5364427                       # number of ReadReq accesses(hits+misses)
system.cpu.icache.ReadReq_avg_miss_latency::.cpu.inst 87264.026403                       # average ReadReq miss latency
system.cpu.icache.ReadReq_avg_miss_latency::total 87264.026403                       # average ReadReq miss latency
system.cpu.icache.ReadReq_avg_mshr_miss_latency::.cpu.inst 85264.026403                       # average ReadReq mshr miss latency
system.cpu.icache.ReadReq_avg_mshr_miss_latency::total 85264.026403                       # average ReadReq mshr miss latency
system.cpu.icache.ReadReq_hits::.cpu.inst      5363821                       # number of ReadReq hits
system.cpu.icache.ReadReq_hits::total         5363821                       # number of ReadReq hits
system.cpu.icache.ReadReq_miss_latency::.cpu.inst     52882000                       # number of ReadReq miss cycles
system.cpu.icache.ReadReq_miss_latency::total     52882000                       # number of ReadReq miss cycles
system.cpu.icache.ReadReq_miss_rate::.cpu.inst     0.000113                       # miss rate for ReadReq accesses
system.cpu.icache.ReadReq_miss_rate::total     0.000113                       # miss rate for ReadReq accesses
system.cpu.icache.ReadReq_misses::.cpu.inst          606                       # number of ReadReq misses
system.cpu.icache.ReadReq_misses::total           606                       # number of ReadReq misses
system.cpu.icache.ReadReq_mshr_miss_latency::.cpu.inst     51670000                       # number of ReadReq MSHR miss cycles
system.cpu.icache.ReadReq_mshr_miss_latency::total     51670000                       # number of ReadReq MSHR miss cycles
system.cpu.icache.ReadReq_mshr_miss_rate::.cpu.inst     0.000113                       # mshr miss rate for ReadReq accesses
system.cpu.icache.ReadReq_mshr_miss_rate::total     0.000113                       # mshr miss rate for ReadReq accesses
system.cpu.icache.ReadReq_mshr_misses::.cpu.inst          606                       # number of ReadReq MSHR misses
system.cpu.icache.ReadReq_mshr_misses::total          606                       # number of ReadReq MSHR misses
system.cpu.icache.avg_blocked_cycles::no_mshrs          nan                       # average number of cycles each access was blocked
system.cpu.icache.avg_blocked_cycles::no_targets          nan                       # average number of cycles each access was blocked
system.cpu.icache.blocked::no_mshrs                 0                       # number of cycles access was blocked
system.cpu.icache.blocked::no_targets               0                       # number of cycles access was blocked
system.cpu.icache.blocked_cycles::no_mshrs            0                       # number of cycles access was blocked
system.cpu.icache.blocked_cycles::no_targets            0                       # number of cycles access was blocked
system.cpu.icache.demand_accesses::.cpu.inst      5364427                       # number of demand (read+write) accesses
system.cpu.icache.demand_accesses::total      5364427                       # number of demand (read+write) accesses
system.cpu.icache.demand_avg_miss_latency::.cpu.inst 87264.026403                       # average overall miss latency
system.cpu.icache.demand_avg_miss_latency::total 87264.026403                       # average overall miss latency
system.cpu.icache.demand_avg_mshr_miss_latency::.cpu.inst 85264.026403                       # average overall mshr miss latency
system.cpu.icache.demand_avg_mshr_miss_latency::total 85264.026403                       # average overall mshr miss latency
system.cpu.icache.demand_hits::.cpu.inst      5363821                       # number of demand (read+write) hits
system.cpu.icache.demand_hits::total          5363821                       # number of demand (read+write) hits
system.cpu.icache.demand_miss_latency::.cpu.inst     52882000                       # number of demand (read+write) miss cycles
system.cpu.icache.demand_miss_latency::total     52882000                       # number of demand (read+write) miss cycles
system.cpu.icache.demand_miss_rate::.cpu.inst     0.000113                       # miss rate for demand accesses
system.cpu.icache.demand_miss_rate::total     0.000113                       # miss rate for demand accesses
system.cpu.icache.demand_misses::.cpu.inst          606                       # number of demand (read+write) misses
system.cpu.icache.demand_misses::total            606                       # number of demand (read+write) misses
system.cpu.icache.demand_mshr_miss_latency::.cpu.inst     51670000                       # number of demand (read+write) MSHR miss cycles
system.cpu.icache.demand_mshr_miss_latency::total     51670000                       # number of demand (read+write) MSHR miss cycles
system.cpu.icache.demand_mshr_miss_rate::.cpu.inst     0.000113                       # mshr miss rate for demand accesses
system.cpu.icache.demand_mshr_miss_rate::total     0.000113                       # mshr miss rate for demand accesses
system.cpu.icache.demand_mshr_misses::.cpu.inst          606                       # number of demand (read+write) MSHR misses
system.cpu.icache.demand_mshr_misses::total          606                       # number of demand (read+write) MSHR misses
system.cpu.icache.overall_accesses::.cpu.inst      5364427                       # number of overall (read+write) accesses
system.cpu.icache.overall_accesses::total      5364427                       # number of overall (read+write) accesses
system.cpu.icache.overall_avg_miss_latency::.cpu.inst 87264.026403                       # average overall miss latency
system.cpu.icache.overall_avg_miss_latency::total 87264.026403                       # average overall miss latency
system.cpu.icache.overall_avg_mshr_miss_latency::.cpu.inst 85264.026403                       # average overall mshr miss latency
system.cpu.icache.overall_avg_mshr_miss_latency::total 85264.026403                       # average overall mshr miss latency
system.cpu.icache.overall_hits::.cpu.inst      5363821                       # number of overall hits
system.cpu.icache.overall_hits::total         5363821                       # number of overall hits
system.cpu.icache.overall_miss_latency::.cpu.inst     52882000                       # number of overall miss cycles
system.cpu.icache.overall_miss_latency::total     52882000                       # number of overall miss cycles
system.cpu.icache.overall_miss_rate::.cpu.inst     0.000113                       # miss rate for overall accesses
system.cpu.icache.overall_miss_rate::total     0.000113                       # miss rate for overall accesses
system.cpu.icache.overall_misses::.cpu.inst          606                       # number of overall misses
system.cpu.icache.overall_misses::total           606                       # number of overall misses
system.cpu.icache.overall_mshr_miss_latency::.cpu.inst     51670000                       # number of overall MSHR miss cycles
system.cpu.icache.overall_mshr_miss_latency::total     51670000                       # number of overall MSHR miss cycles
system.cpu.icache.overall_mshr_miss_rate::.cpu.inst     0.000113                       # mshr miss rate for overall accesses
system.cpu.icache.overall_mshr_miss_rate::total     0.000113                       # mshr miss rate for overall accesses
system.cpu.icache.overall_mshr_misses::.cpu.inst          606                       # number of overall MSHR misses
system.cpu.icache.overall_mshr_misses::total          606                       # number of overall MSHR misses
system.cpu.icache.pwrStateResidencyTicks::UNDEFINED 263807132000                       # Cumulative time (in ticks) in various power states
system.cpu.icache.replacements                    274                       # number of replacements
system.cpu.icache.tags.age_task_id_blocks_1024::4          332                       # Occupied blocks per task id
system.cpu.icache.tags.avg_refs           8852.189769                       # Average number of references to valid blocks.
system.cpu.icache.tags.data_accesses          5365033                       # Number of data accesses
system.cpu.icache.tags.occ_blocks::.cpu.inst   331.958351                       # Average occupied blocks per requestor
system.cpu.icache.tags.occ_percent::.cpu.inst     0.648356                       # Average percentage of cache occupancy
system.cpu.icache.tags.occ_percent::total     0.648356                       # Average percentage of cache occupancy
system.cpu.icache.tags.occ_task_id_blocks::1024          332                       # Occupied blocks per task id
system.cpu.icache.tags.occ_task_id_percent::1024     0.648438                       # Percentage of cache occupancy per task id
system.cpu.icache.tags.pwrStateResidencyTicks::UNDEFINED 263807132000                       # Cumulative time (in ticks) in various power states
system.cpu.icache.tags.sampled_refs               606                       # Sample count of references to valid blocks.
system.cpu.icache.tags.tag_accesses           5365033                       # Number of tag accesses
system.cpu.icache.tags.tagsinuse           331.958351                       # Cycle average of tags in use
system.cpu.icache.tags.total_refs             5364427                       # Total number of references to valid blocks.
system.cpu.icache.tags.warmup_cycle            108000                       # Cycle when the warmup percentage was hit.
system.cpu.icache.writebacks::.writebacks          274                       # number of writebacks
system.cpu.icache.writebacks::total               274                       # number of writebacks
system.cpu.idleCycles                       147097225                       # Total number of cycles that the object has spent stopped
system.cpu.ipc                               0.379065                       # IPC: instructions per cycle
system.cpu.istage2_mmu.stage2_tlb.accesses            0                       # DTB accesses
system.cpu.istage2_mmu.stage2_tlb.align_faults            0                       # Number of TLB faults due to alignment restrictions
system.cpu.istage2_mmu.stage2_tlb.domain_faults            0                       # Number of TLB faults due to domain restrictions
system.cpu.istage2_mmu.stage2_tlb.flush_entries            0                       # Number of entries that have been flushed from TLB
system.cpu.istage2_mmu.stage2_tlb.flush_tlb            0                       # Number of times complete TLB was flushed
system.cpu.istage2_mmu.stage2_tlb.flush_tlb_asid            0                       # Number of times TLB was flushed by ASID
system.cpu.istage2_mmu.stage2_tlb.flush_tlb_mva            0                       # Number of times TLB was flushed by MVA
system.cpu.istage2_mmu.stage2_tlb.flush_tlb_mva_asid            0                       # Number of times TLB was flushed by MVA & ASID
system.cpu.istage2_mmu.stage2_tlb.hits              0                       # DTB hits
system.cpu.istage2_mmu.stage2_tlb.inst_accesses            0                       # ITB inst accesses
system.cpu.istage2_mmu.stage2_tlb.inst_hits            0                       # ITB inst hits
system.cpu.istage2_mmu.stage2_tlb.inst_misses            0                       # ITB inst misses
system.cpu.istage2_mmu.stage2_tlb.misses            0                       # DTB misses
system.cpu.istage2_mmu.stage2_tlb.perms_faults            0                       # Number of TLB faults due to permissions restrictions
system.cpu.istage2_mmu.stage2_tlb.prefetch_faults            0                       # Number of TLB faults due to prefetch
system.cpu.istage2_mmu.stage2_tlb.read_accesses            0                       # DTB read accesses
system.cpu.istage2_mmu.stage2_tlb.read_hits            0                       # DTB read hits
system.cpu.istage2_mmu.stage2_tlb.read_misses            0                       # DTB read misses
system.cpu.istage2_mmu.stage2_tlb.walker.pwrStateResidencyTicks::UNDEFINED 263807132000                       # Cumulative time (in ticks) in various power states
system.cpu.istage2_mmu.stage2_tlb.walker.walkRequestOrigin_Requested::Data            0                       # Table walker requests started/completed, data/inst
system.cpu.istage2_mmu.stage2_tlb.walker.walkRequestOrigin_Requested::Inst            0                       # Table walker requests started/completed, data/inst
system.cpu.istage2_mmu.stage2_tlb.walker.walkRequestOrigin_Requested::total            0                       # Table walker requests started/completed, data/inst
system.cpu.istage2_mmu.stage2_tlb.walker.walkRequestOrigin_Completed::Data            0                       # Table walker requests started/completed, data/inst
system.cpu.istage2_mmu.stage2_tlb.walker.walkRequestOrigin_Completed::Inst            0                       # Table walker requests started/completed, data/inst
system.cpu.istage2_mmu.stage2_tlb.walker.walkRequestOrigin_Completed::total            0                       # Table walker requests started/completed, data/inst
system.cpu.istage2_mmu.stage2_tlb.walker.walkRequestOrigin::total            0                       # Table walker requests started/completed, data/inst
system.cpu.istage2_mmu.stage2_tlb.walker.walks            0                       # Table walker walks requested
system.cpu.istage2_mmu.stage2_tlb.write_accesses            0                       # DTB write accesses
system.cpu.istage2_mmu.stage2_tlb.write_hits            0                       # DTB write hits
system.cpu.istage2_mmu.stage2_tlb.write_misses            0                       # DTB write misses
system.cpu.itb.accesses                             0                       # DTB accesses
system.cpu.itb.align_faults                         0                       # Number of TLB faults due to alignment restrictions
system.cpu.itb.domain_faults                        0                       # Number of TLB faults due to domain restrictions
system.cpu.itb.flush_entries                        0                       # Number of entries that have been flushed from TLB
system.cpu.itb.flush_tlb                            0                       # Number of times complete TLB was flushed
system.cpu.itb.flush_tlb_asid                       0                       # Number of times TLB was flushed by ASID
system.cpu.itb.flush_tlb_mva                        0                       # Number of times TLB was flushed by MVA
system.cpu.itb.flush_tlb_mva_asid                   0                       # Number of times TLB was flushed by MVA & ASID
system.cpu.itb.hits                                 0                       # DTB hits
system.cpu.itb.inst_accesses                        0                       # ITB inst accesses
system.cpu.itb.inst_hits                            0                       # ITB inst hits
system.cpu.itb.inst_misses                          0                       # ITB inst misses
system.cpu.itb.misses                               0                       # DTB misses
system.cpu.itb.perms_faults                         0                       # Number of TLB faults due to permissions restrictions
system.cpu.itb.prefetch_faults                      0                       # Number of TLB faults due to prefetch
system.cpu.itb.read_accesses                        0                       # DTB read accesses
system.cpu.itb.read_hits                            0                       # DTB read hits
system.cpu.itb.read_misses                          0                       # DTB read misses
system.cpu.itb.walker.pwrStateResidencyTicks::UNDEFINED 263807132000                       # Cumulative time (in ticks) in various power states
system.cpu.itb.walker.walkRequestOrigin_Requested::Data            0                       # Table walker requests started/completed, data/inst
system.cpu.itb.walker.walkRequestOrigin_Requested::Inst            0                       # Table walker requests started/completed, data/inst
system.cpu.itb.walker.walkRequestOrigin_Requested::total            0                       # Table walker requests started/completed, data/inst
system.cpu.itb.walker.walkRequestOrigin_Completed::Data            0                       # Table walker requests started/completed, data/inst
system.cpu.itb.walker.walkRequestOrigin_Completed::Inst            0                       # Table walker requests started/completed, data/inst
system.cpu.itb.walker.walkRequestOrigin_Completed::total            0                       # Table walker requests started/completed, data/inst
system.cpu.itb.walker.walkRequestOrigin::total            0                       # Table walker requests started/completed, data/inst
system.cpu.itb.walker.walks                         0                       # Table walker walks requested
system.cpu.itb.write_accesses                       0                       # DTB write accesses
system.cpu.itb.write_hits                           0                       # DTB write hits
system.cpu.itb.write_misses                         0                       # DTB write misses
system.cpu.numCycles                        263807132                       # number of cpu cycles simulated
system.cpu.numFetchSuspends                         0                       # Number of times Execute suspended instruction fetching
system.cpu.numWorkItemsCompleted                    0                       # number of work items this cpu completed
system.cpu.numWorkItemsStarted                      0                       # number of work items this cpu started
system.cpu.op_class_0::No_OpClass                   0      0.00%      0.00% # Class of committed instruction
system.cpu.op_class_0::IntAlu                50006822     50.01%     50.01% # Class of committed instruction
system.cpu.op_class_0::IntMult                     85      0.00%     50.01% # Class of committed instruction
system.cpu.op_class_0::IntDiv                       0      0.00%     50.01% # Class of committed instruction
system.cpu.op_class_0::FloatAdd                     0      0.00%     50.01% # Class of committed instruction
system.cpu.op_class_0::FloatCmp                     0      0.00%     50.01% # Class of committed instruction
system.cpu.op_class_0::FloatCvt                     0      0.00%     50.01% # Class of committed instruction
system.cpu.op_class_0::FloatMult                    0      0.00%     50.01% # Class of committed instruction
system.cpu.op_class_0::FloatMultAcc                 0      0.00%     50.01% # Class of committed instruction
system.cpu.op_class_0::FloatDiv                     0      0.00%     50.01% # Class of committed instruction
system.cpu.op_class_0::FloatMisc                    0      0.00%     50.01% # Class of committed instruction
system.cpu.op_class_0::FloatSqrt                    0      0.00%     50.01% # Class of committed instruction
system.cpu.op_class_0::SimdAdd                      0      0.00%     50.01% # Class of committed instruction
system.cpu.op_class_0::SimdAddAcc                   0      0.00%     50.01% # Class of committed instruction
system.cpu.op_class_0::SimdAlu                      0      0.00%     50.01% # Class of committed instruction
system.cpu.op_class_0::SimdCmp                      0      0.00%     50.01% # Class of committed instruction
system.cpu.op_class_0::SimdCvt                      0      0.00%     50.01% # Class of committed instruction
system.cpu.op_class_0::SimdMisc                     0      0.00%     50.01% # Class of committed instruction
system.cpu.op_class_0::SimdMult                     0      0.00%     50.01% # Class of committed instruction
system.cpu.op_class_0::SimdMultAcc                  0      0.00%     50.01% # Class of committed instruction
system.cpu.op_class_0::SimdShift                    0      0.00%     50.01% # Class of committed instruction
system.cpu.op_class_0::SimdShiftAcc                 0      0.00%     50.01% # Class of committed instruction
system.cpu.op_class_0::SimdDiv                      0      0.00%     50.01% # Class of committed instruction
system.cpu.op_class_0::SimdSqrt                     0      0.00%     50.01% # Class of committed instruction
system.cpu.op_class_0::SimdFloatAdd                 0      0.00%     50.01% # Class of committed instruction
system.cpu.op_class_0::SimdFloatAlu                 0      0.00%     50.01% # Class of committed instruction
system.cpu.op_class_0::SimdFloatCmp                 2      0.00%     50.01% # Class of committed instruction
system.cpu.op_class_0::SimdFloatCvt                 0      0.00%     50.01% # Class of committed instruction
system.cpu.op_class_0::SimdFloatDiv                 0      0.00%     50.01% # Class of committed instruction
system.cpu.op_class_0::SimdFloatMisc                6      0.00%     50.01% # Class of committed instruction
system.cpu.op_class_0::SimdFloatMult                0      0.00%     50.01% # Class of committed instruction
system.cpu.op_class_0::SimdFloatMultAcc             0      0.00%     50.01% # Class of committed instruction
system.cpu.op_class_0::SimdFloatSqrt                0      0.00%     50.01% # Class of committed instruction
system.cpu.op_class_0::SimdReduceAdd                0      0.00%     50.01% # Class of committed instruction
system.cpu.op_class_0::SimdReduceAlu                0      0.00%     50.01% # Class of committed instruction
system.cpu.op_class_0::SimdReduceCmp                0      0.00%     50.01% # Class of committed instruction
system.cpu.op_class_0::SimdFloatReduceAdd            0      0.00%     50.01% # Class of committed instruction
system.cpu.op_class_0::SimdFloatReduceCmp            0      0.00%     50.01% # Class of committed instruction
system.cpu.op_class_0::SimdAes                      0      0.00%     50.01% # Class of committed instruction
system.cpu.op_class_0::SimdAesMix                   0      0.00%     50.01% # Class of committed instruction
system.cpu.op_class_0::SimdSha1Hash                 0      0.00%     50.01% # Class of committed instruction
system.cpu.op_class_0::SimdSha1Hash2                0      0.00%     50.01% # Class of committed instruction
system.cpu.op_class_0::SimdSha256Hash               0      0.00%     50.01% # Class of committed instruction
system.cpu.op_class_0::SimdSha256Hash2              0      0.00%     50.01% # Class of committed instruction
system.cpu.op_class_0::SimdShaSigma2                0      0.00%     50.01% # Class of committed instruction
system.cpu.op_class_0::SimdShaSigma3                0      0.00%     50.01% # Class of committed instruction
system.cpu.op_class_0::SimdPredAlu                  0      0.00%     50.01% # Class of committed instruction
system.cpu.op_class_0::MemRead               36900886     36.90%     86.90% # Class of committed instruction
system.cpu.op_class_0::MemWrite              13095738     13.10%    100.00% # Class of committed instruction
system.cpu.op_class_0::FloatMemRead                 0      0.00%    100.00% # Class of committed instruction
system.cpu.op_class_0::FloatMemWrite                0      0.00%    100.00% # Class of committed instruction
system.cpu.op_class_0::IprAccess                    0      0.00%    100.00% # Class of committed instruction
system.cpu.op_class_0::InstPrefetch                 0      0.00%    100.00% # Class of committed instruction
system.cpu.op_class_0::total                100003539                       # Class of committed instruction
system.cpu.pwrStateResidencyTicks::ON    263807132000                       # Cumulative time (in ticks) in various power states
system.cpu.tickCycles                       116709907                       # Number of cycles that the object actually ticked
system.cpu.workload.numSyscalls                    18                       # Number of system calls
system.cpu_clk_domain.clock                      1000                       # Clock period in ticks
system.cpu_voltage_domain.voltage                   1                       # Voltage in Volts
system.l2.ReadCleanReq_accesses::.cpu.inst          606                       # number of ReadCleanReq accesses(hits+misses)
system.l2.ReadCleanReq_accesses::total            606                       # number of ReadCleanReq accesses(hits+misses)
system.l2.ReadCleanReq_avg_miss_latency::.cpu.inst 96553.971487                       # average ReadCleanReq miss latency
system.l2.ReadCleanReq_avg_miss_latency::total 96553.971487                       # average ReadCleanReq miss latency
system.l2.ReadCleanReq_avg_mshr_miss_latency::.cpu.inst 76553.971487                       # average ReadCleanReq mshr miss latency
system.l2.ReadCleanReq_avg_mshr_miss_latency::total 76553.971487                       # average ReadCleanReq mshr miss latency
system.l2.ReadCleanReq_hits::.cpu.inst            115                       # number of ReadCleanReq hits
system.l2.ReadCleanReq_hits::total                115                       # number of ReadCleanReq hits
system.l2.ReadCleanReq_miss_latency::.cpu.inst     47408000                       # number of ReadCleanReq miss cycles
system.l2.ReadCleanReq_miss_latency::total     47408000                       # number of ReadCleanReq miss cycles
system.l2.ReadCleanReq_miss_rate::.cpu.inst     0.810231                       # miss rate for ReadCleanReq accesses
system.l2.ReadCleanReq_miss_rate::total      0.810231                       # miss rate for ReadCleanReq accesses
system.l2.ReadCleanReq_misses::.cpu.inst          491                       # number of ReadCleanReq misses
system.l2.ReadCleanReq_misses::total              491                       # number of ReadCleanReq misses
system.l2.ReadCleanReq_mshr_miss_latency::.cpu.inst     37588000                       # number of ReadCleanReq MSHR miss cycles
system.l2.ReadCleanReq_mshr_miss_latency::total     37588000                       # number of ReadCleanReq MSHR miss cycles
system.l2.ReadCleanReq_mshr_miss_rate::.cpu.inst     0.810231                       # mshr miss rate for ReadCleanReq accesses
system.l2.ReadCleanReq_mshr_miss_rate::total     0.810231                       # mshr miss rate for ReadCleanReq accesses
system.l2.ReadCleanReq_mshr_misses::.cpu.inst          491                       # number of ReadCleanReq MSHR misses
system.l2.ReadCleanReq_mshr_misses::total          491                       # number of ReadCleanReq MSHR misses
system.l2.ReadExReq_accesses::.cpu.data       1496565                       # number of ReadExReq accesses(hits+misses)
system.l2.ReadExReq_accesses::total           1496565                       # number of ReadExReq accesses(hits+misses)
system.l2.ReadExReq_avg_miss_latency::.cpu.data 101651.976984                       # average ReadExReq miss latency
system.l2.ReadExReq_avg_miss_latency::total 101651.976984                       # average ReadExReq miss latency
system.l2.ReadExReq_avg_mshr_miss_latency::.cpu.data 81651.976984                       # average ReadExReq mshr miss latency
system.l2.ReadExReq_avg_mshr_miss_latency::total 81651.976984                       # average ReadExReq mshr miss latency
system.l2.ReadExReq_hits::.cpu.data              8718                       # number of ReadExReq hits
system.l2.ReadExReq_hits::total                  8718                       # number of ReadExReq hits
system.l2.ReadExReq_miss_latency::.cpu.data 151242589000                       # number of ReadExReq miss cycles
system.l2.ReadExReq_miss_latency::total  151242589000                       # number of ReadExReq miss cycles
system.l2.ReadExReq_miss_rate::.cpu.data     0.994175                       # miss rate for ReadExReq accesses
system.l2.ReadExReq_miss_rate::total         0.994175                       # miss rate for ReadExReq accesses
system.l2.ReadExReq_misses::.cpu.data         1487847                       # number of ReadExReq misses
system.l2.ReadExReq_misses::total             1487847                       # number of ReadExReq misses
system.l2.ReadExReq_mshr_miss_latency::.cpu.data 121485649000                       # number of ReadExReq MSHR miss cycles
system.l2.ReadExReq_mshr_miss_latency::total 121485649000                       # number of ReadExReq MSHR miss cycles
system.l2.ReadExReq_mshr_miss_rate::.cpu.data     0.994175                       # mshr miss rate for ReadExReq accesses
system.l2.ReadExReq_mshr_miss_rate::total     0.994175                       # mshr miss rate for ReadExReq accesses
system.l2.ReadExReq_mshr_misses::.cpu.data      1487847                       # number of ReadExReq MSHR misses
system.l2.ReadExReq_mshr_misses::total        1487847                       # number of ReadExReq MSHR misses
system.l2.ReadSharedReq_accesses::.cpu.data        11738                       # number of ReadSharedReq accesses(hits+misses)
system.l2.ReadSharedReq_accesses::total         11738                       # number of ReadSharedReq accesses(hits+misses)
system.l2.ReadSharedReq_avg_miss_latency::.cpu.data 95737.864078                       # average ReadSharedReq miss latency
system.l2.ReadSharedReq_avg_miss_latency::total 95737.864078                       # average ReadSharedReq miss latency
system.l2.ReadSharedReq_avg_mshr_miss_latency::.cpu.data 76303.030303                       # average ReadSharedReq mshr miss latency
system.l2.ReadSharedReq_avg_mshr_miss_latency::total 76303.030303                       # average ReadSharedReq mshr miss latency
system.l2.ReadSharedReq_hits::.cpu.data         11635                       # number of ReadSharedReq hits
system.l2.ReadSharedReq_hits::total             11635                       # number of ReadSharedReq hits
system.l2.ReadSharedReq_miss_latency::.cpu.data      9861000                       # number of ReadSharedReq miss cycles
system.l2.ReadSharedReq_miss_latency::total      9861000                       # number of ReadSharedReq miss cycles
system.l2.ReadSharedReq_miss_rate::.cpu.data     0.008775                       # miss rate for ReadSharedReq accesses
system.l2.ReadSharedReq_miss_rate::total     0.008775                       # miss rate for ReadSharedReq accesses
system.l2.ReadSharedReq_misses::.cpu.data          103                       # number of ReadSharedReq misses
system.l2.ReadSharedReq_misses::total             103                       # number of ReadSharedReq misses
system.l2.ReadSharedReq_mshr_hits::.cpu.data            4                       # number of ReadSharedReq MSHR hits
system.l2.ReadSharedReq_mshr_hits::total            4                       # number of ReadSharedReq MSHR hits
system.l2.ReadSharedReq_mshr_miss_latency::.cpu.data      7554000                       # number of ReadSharedReq MSHR miss cycles
system.l2.ReadSharedReq_mshr_miss_latency::total      7554000                       # number of ReadSharedReq MSHR miss cycles
system.l2.ReadSharedReq_mshr_miss_rate::.cpu.data     0.008434                       # mshr miss rate for ReadSharedReq accesses
system.l2.ReadSharedReq_mshr_miss_rate::total     0.008434                       # mshr miss rate for ReadSharedReq accesses
system.l2.ReadSharedReq_mshr_misses::.cpu.data           99                       # number of ReadSharedReq MSHR misses
system.l2.ReadSharedReq_mshr_misses::total           99                       # number of ReadSharedReq MSHR misses
system.l2.WritebackClean_accesses::.writebacks          263                       # number of WritebackClean accesses(hits+misses)
system.l2.WritebackClean_accesses::total          263                       # number of WritebackClean accesses(hits+misses)
system.l2.WritebackClean_hits::.writebacks          263                       # number of WritebackClean hits
system.l2.WritebackClean_hits::total              263                       # number of WritebackClean hits
system.l2.WritebackDirty_accesses::.writebacks      1501369                       # number of WritebackDirty accesses(hits+misses)
system.l2.WritebackDirty_accesses::total      1501369                       # number of WritebackDirty accesses(hits+misses)
system.l2.WritebackDirty_hits::.writebacks      1501369                       # number of WritebackDirty hits
system.l2.WritebackDirty_hits::total          1501369                       # number of WritebackDirty hits
system.l2.avg_blocked_cycles::no_mshrs            nan                       # average number of cycles each access was blocked
system.l2.avg_blocked_cycles::no_targets          nan                       # average number of cycles each access was blocked
system.l2.blocked::no_mshrs                         0                       # number of cycles access was blocked
system.l2.blocked::no_targets                       0                       # number of cycles access was blocked
system.l2.blocked_cycles::no_mshrs                  0                       # number of cycles access was blocked
system.l2.blocked_cycles::no_targets                0                       # number of cycles access was blocked
system.l2.demand_accesses::.cpu.inst              606                       # number of demand (read+write) accesses
system.l2.demand_accesses::.cpu.data          1508303                       # number of demand (read+write) accesses
system.l2.demand_accesses::total              1508909                       # number of demand (read+write) accesses
system.l2.demand_avg_miss_latency::.cpu.inst 96553.971487                       # average overall miss latency
system.l2.demand_avg_miss_latency::.cpu.data 101651.567593                       # average overall miss latency
system.l2.demand_avg_miss_latency::total 101649.886022                       # average overall miss latency
system.l2.demand_avg_mshr_miss_latency::.cpu.inst 76553.971487                       # average overall mshr miss latency
system.l2.demand_avg_mshr_miss_latency::.cpu.data 81651.621094                       # average overall mshr miss latency
system.l2.demand_avg_mshr_miss_latency::total 81649.939500                       # average overall mshr miss latency
system.l2.demand_hits::.cpu.inst                  115                       # number of demand (read+write) hits
system.l2.demand_hits::.cpu.data                20353                       # number of demand (read+write) hits
system.l2.demand_hits::total                    20468                       # number of demand (read+write) hits
system.l2.demand_miss_latency::.cpu.inst     47408000                       # number of demand (read+write) miss cycles
system.l2.demand_miss_latency::.cpu.data 151252450000                       # number of demand (read+write) miss cycles
system.l2.demand_miss_latency::total     151299858000                       # number of demand (read+write) miss cycles
system.l2.demand_miss_rate::.cpu.inst        0.810231                       # miss rate for demand accesses
system.l2.demand_miss_rate::.cpu.data        0.986506                       # miss rate for demand accesses
system.l2.demand_miss_rate::total            0.986435                       # miss rate for demand accesses
system.l2.demand_misses::.cpu.inst                491                       # number of demand (read+write) misses
system.l2.demand_misses::.cpu.data            1487950                       # number of demand (read+write) misses
system.l2.demand_misses::total                1488441                       # number of demand (read+write) misses
system.l2.demand_mshr_hits::.cpu.data               4                       # number of demand (read+write) MSHR hits
system.l2.demand_mshr_hits::total                   4                       # number of demand (read+write) MSHR hits
system.l2.demand_mshr_miss_latency::.cpu.inst     37588000                       # number of demand (read+write) MSHR miss cycles
system.l2.demand_mshr_miss_latency::.cpu.data 121493203000                       # number of demand (read+write) MSHR miss cycles
system.l2.demand_mshr_miss_latency::total 121530791000                       # number of demand (read+write) MSHR miss cycles
system.l2.demand_mshr_miss_rate::.cpu.inst     0.810231                       # mshr miss rate for demand accesses
system.l2.demand_mshr_miss_rate::.cpu.data     0.986503                       # mshr miss rate for demand accesses
system.l2.demand_mshr_miss_rate::total       0.986433                       # mshr miss rate for demand accesses
system.l2.demand_mshr_misses::.cpu.inst           491                       # number of demand (read+write) MSHR misses
system.l2.demand_mshr_misses::.cpu.data       1487946                       # number of demand (read+write) MSHR misses
system.l2.demand_mshr_misses::total           1488437                       # number of demand (read+write) MSHR misses
system.l2.overall_accesses::.cpu.inst             606                       # number of overall (read+write) accesses
system.l2.overall_accesses::.cpu.data         1508303                       # number of overall (read+write) accesses
system.l2.overall_accesses::total             1508909                       # number of overall (read+write) accesses
system.l2.overall_avg_miss_latency::.cpu.inst 96553.971487                       # average overall miss latency
system.l2.overall_avg_miss_latency::.cpu.data 101651.567593                       # average overall miss latency
system.l2.overall_avg_miss_latency::total 101649.886022                       # average overall miss latency
system.l2.overall_avg_mshr_miss_latency::.cpu.inst 76553.971487                       # average overall mshr miss latency
system.l2.overall_avg_mshr_miss_latency::.cpu.data 81651.621094                       # average overall mshr miss latency
system.l2.overall_avg_mshr_miss_latency::total 81649.939500                       # average overall mshr miss latency
system.l2.overall_hits::.cpu.inst                 115                       # number of overall hits
system.l2.overall_hits::.cpu.data               20353                       # number of overall hits
system.l2.overall_hits::total                   20468                       # number of overall hits
system.l2.overall_miss_latency::.cpu.inst     47408000                       # number of overall miss cycles
system.l2.overall_miss_latency::.cpu.data 151252450000                       # number of overall miss cycles
system.l2.overall_miss_latency::total    151299858000                       # number of overall miss cycles
system.l2.overall_miss_rate::.cpu.inst       0.810231                       # miss rate for overall accesses
system.l2.overall_miss_rate::.cpu.data       0.986506                       # miss rate for overall accesses
system.l2.overall_miss_rate::total           0.986435                       # miss rate for overall accesses
system.l2.overall_misses::.cpu.inst               491                       # number of overall misses
system.l2.overall_misses::.cpu.data           1487950                       # number of overall misses
system.l2.overall_misses::total               1488441                       # number of overall misses
system.l2.overall_mshr_hits::.cpu.data              4                       # number of overall MSHR hits
system.l2.overall_mshr_hits::total                  4                       # number of overall MSHR hits
system.l2.overall_mshr_miss_latency::.cpu.inst     37588000                       # number of overall MSHR miss cycles
system.l2.overall_mshr_miss_latency::.cpu.data 121493203000                       # number of overall MSHR miss cycles
system.l2.overall_mshr_miss_latency::total 121530791000                       # number of overall MSHR miss cycles
system.l2.overall_mshr_miss_rate::.cpu.inst     0.810231                       # mshr miss rate for overall accesses
system.l2.overall_mshr_miss_rate::.cpu.data     0.986503                       # mshr miss rate for overall accesses
system.l2.overall_mshr_miss_rate::total      0.986433                       # mshr miss rate for overall accesses
system.l2.overall_mshr_misses::.cpu.inst          491                       # number of overall MSHR misses
system.l2.overall_mshr_misses::.cpu.data      1487946                       # number of overall MSHR misses
system.l2.overall_mshr_misses::total          1488437                       # number of overall MSHR misses
system.l2.pwrStateResidencyTicks::UNDEFINED 263807132000                       # Cumulative time (in ticks) in various power states
system.l2.replacements                        1455669                       # number of replacements
system.l2.tags.age_task_id_blocks_1024::0           56                       # Occupied blocks per task id
system.l2.tags.age_task_id_blocks_1024::1          506                       # Occupied blocks per task id
system.l2.tags.age_task_id_blocks_1024::2         5072                       # Occupied blocks per task id
system.l2.tags.age_task_id_blocks_1024::3        27132                       # Occupied blocks per task id
system.l2.tags.age_task_id_blocks_1024::4            2                       # Occupied blocks per task id
system.l2.tags.avg_refs                      2.022671                       # Average number of references to valid blocks.
system.l2.tags.data_accesses                 13530929                       # Number of data accesses
system.l2.tags.occ_blocks::.cpu.inst         9.393937                       # Average occupied blocks per requestor
system.l2.tags.occ_blocks::.cpu.data     32413.495951                       # Average occupied blocks per requestor
system.l2.tags.occ_percent::.cpu.inst        0.000287                       # Average percentage of cache occupancy
system.l2.tags.occ_percent::.cpu.data        0.989181                       # Average percentage of cache occupancy
system.l2.tags.occ_percent::total            0.989468                       # Average percentage of cache occupancy
system.l2.tags.occ_task_id_blocks::1024         32768                       # Occupied blocks per task id
system.l2.tags.occ_task_id_percent::1024            1                       # Percentage of cache occupancy per task id
system.l2.tags.pwrStateResidencyTicks::UNDEFINED 263807132000                       # Cumulative time (in ticks) in various power states
system.l2.tags.sampled_refs                   1488437                       # Sample count of references to valid blocks.
system.l2.tags.tag_accesses                  13530929                       # Number of tag accesses
system.l2.tags.tagsinuse                 32422.889889                       # Cycle average of tags in use
system.l2.tags.total_refs                     3010619                       # Total number of references to valid blocks.
system.l2.tags.warmup_cycle                     87000                       # Cycle when the warmup percentage was hit.
system.l2.writebacks::.writebacks             1455095                       # number of writebacks
system.l2.writebacks::total                   1455095                       # number of writebacks
system.mem_ctrls.avgBusLat                    5000.00                       # Average bus latency per DRAM burst
system.mem_ctrls.avgGap                      89622.63                       # Average gap between requests
system.mem_ctrls.avgMemAccLat                30386.65                       # Average memory access latency per DRAM burst
system.mem_ctrls.avgPriority_.writebacks::samples   1455095.00                       # Average QoS priority value for accepted requests
system.mem_ctrls.avgPriority_.cpu.inst::samples       491.00                       # Average QoS priority value for accepted requests
system.mem_ctrls.avgPriority_.cpu.data::samples   1487946.00                       # Average QoS priority value for accepted requests
system.mem_ctrls.avgQLat                     11636.65                       # Average queueing delay per DRAM burst
system.mem_ctrls.avgRdBW                       361.10                       # Average DRAM read bandwidth in MiByte/s
system.mem_ctrls.avgRdBWSys                    361.10                       # Average system read bandwidth in MiByte/s
system.mem_ctrls.avgRdQLen                       1.00                       # Average read queue length when enqueuing
system.mem_ctrls.avgWrBW                       353.00                       # Average achieved write bandwidth in MiByte/s
system.mem_ctrls.avgWrBWSys                    353.01                       # Average system write bandwidth in MiByte/s
system.mem_ctrls.avgWrQLen                      24.37                       # Average write queue length when enqueuing
system.mem_ctrls.busUtil                         5.58                       # Data bus utilization in percentage
system.mem_ctrls.busUtilRead                     2.82                       # Data bus utilization in percentage for reads
system.mem_ctrls.busUtilWrite                    2.76                       # Data bus utilization in percentage for writes
system.mem_ctrls.bw_inst_read::.cpu.inst       119117                       # Instruction read bandwidth from this memory (bytes/s)
system.mem_ctrls.bw_inst_read::total           119117                       # Instruction read bandwidth from this memory (bytes/s)
system.mem_ctrls.bw_read::.cpu.inst            119117                       # Total read bandwidth from this memory (bytes/s)
system.mem_ctrls.bw_read::.cpu.data         360977898                       # Total read bandwidth from this memory (bytes/s)
system.mem_ctrls.bw_read::total             361097015                       # Total read bandwidth from this memory (bytes/s)
system.mem_ctrls.bw_total::.writebacks      353008197                       # Total bandwidth to/from this memory (bytes/s)
system.mem_ctrls.bw_total::.cpu.inst           119117                       # Total bandwidth to/from this memory (bytes/s)
system.mem_ctrls.bw_total::.cpu.data        360977898                       # Total bandwidth to/from this memory (bytes/s)
system.mem_ctrls.bw_total::total            714105212                       # Total bandwidth to/from this memory (bytes/s)
system.mem_ctrls.bw_write::.writebacks      353008197                       # Write bandwidth from this memory (bytes/s)
system.mem_ctrls.bw_write::total            353008197                       # Write bandwidth from this memory (bytes/s)
system.mem_ctrls.bytesPerActivate::samples       334647                       # Bytes accessed per row activation
system.mem_ctrls.bytesPerActivate::mean    562.934435                       # Bytes accessed per row activation
system.mem_ctrls.bytesPerActivate::gmean   374.556812                       # Bytes accessed per row activation
system.mem_ctrls.bytesPerActivate::stdev   410.639851                       # Bytes accessed per row activation
system.mem_ctrls.bytesPerActivate::0-127        14789      4.42%      4.42% # Bytes accessed per row activation
system.mem_ctrls.bytesPerActivate::128-255       122447     36.59%     41.01% # Bytes accessed per row activation
system.mem_ctrls.bytesPerActivate::256-383        12398      3.70%     44.71% # Bytes accessed per row activation
system.mem_ctrls.bytesPerActivate::384-511        12098      3.62%     48.33% # Bytes accessed per row activation
system.mem_ctrls.bytesPerActivate::512-639        14482      4.33%     52.66% # Bytes accessed per row activation
system.mem_ctrls.bytesPerActivate::640-767        11206      3.35%     56.01% # Bytes accessed per row activation
system.mem_ctrls.bytesPerActivate::768-895        11188      3.34%     59.35% # Bytes accessed per row activation
system.mem_ctrls.bytesPerActivate::896-1023        11936      3.57%     62.92% # Bytes accessed per row activation
system.mem_ctrls.bytesPerActivate::1024-1151       124103     37.08%    100.00% # Bytes accessed per row activation
system.mem_ctrls.bytesPerActivate::total       334647                       # Bytes accessed per row activation
system.mem_ctrls.bytesReadDRAM               95259968                       # Total number of bytes read from DRAM
system.mem_ctrls.bytesReadSys                95259968                       # Total read bytes from the system interface side
system.mem_ctrls.bytesReadWrQ                       0                       # Total number of bytes read from write queue
system.mem_ctrls.bytesWritten                93124672                       # Total number of bytes written to DRAM
system.mem_ctrls.bytesWrittenSys             93126080                       # Total written bytes from the system interface side
system.mem_ctrls.bytes_inst_read::.cpu.inst        31424                       # Number of instructions bytes read from this memory
system.mem_ctrls.bytes_inst_read::total         31424                       # Number of instructions bytes read from this memory
system.mem_ctrls.bytes_read::.cpu.inst          31424                       # Number of bytes read from this memory
system.mem_ctrls.bytes_read::.cpu.data       95228544                       # Number of bytes read from this memory
system.mem_ctrls.bytes_read::total           95259968                       # Number of bytes read from this memory
system.mem_ctrls.bytes_written::.writebacks     93126080                       # Number of bytes written to this memory
system.mem_ctrls.bytes_written::total        93126080                       # Number of bytes written to this memory
system.mem_ctrls.masterReadAccesses::.cpu.inst          491                       # Per-master read serviced memory accesses
system.mem_ctrls.masterReadAccesses::.cpu.data      1487946                       # Per-master read serviced memory accesses
system.mem_ctrls.masterReadAvgLat::.cpu.inst     25247.45                       # Per-master read average memory access latency
system.mem_ctrls.masterReadAvgLat::.cpu.data     30388.34                       # Per-master read average memory access latency
[...]
system.mem_ctrls.wrQLenPdf::21                  80985                       # What write queue length does an incoming req see
system.mem_ctrls.wrQLenPdf::22                  81133                       # What write queue length does an incoming req see
system.mem_ctrls.wrQLenPdf::23                  81829                       # What write queue length does an incoming req see
system.mem_ctrls.wrQLenPdf::24                  80983                       # What write queue length does an incoming req see
system.mem_ctrls.wrQLenPdf::25                  80983                       # What write queue length does an incoming req see
system.mem_ctrls.wrQLenPdf::26                  80983                       # What write queue length does an incoming req see
system.mem_ctrls.wrQLenPdf::27                  80983                       # What write queue length does an incoming req see
system.mem_ctrls.wrQLenPdf::28                  80983                       # What write queue length does an incoming req see
system.mem_ctrls.wrQLenPdf::29                  80983                       # What write queue length does an incoming req see
system.mem_ctrls.wrQLenPdf::30                  80983                       # What write queue length does an incoming req see
system.mem_ctrls.wrQLenPdf::31                  80983                       # What write queue length does an incoming req see
system.mem_ctrls.wrQLenPdf::32                  80983                       # What write queue length does an incoming req see
system.mem_ctrls.wrQLenPdf::33                      0                       # What write queue length does an incoming req see
system.mem_ctrls.wrQLenPdf::34                      0                       # What write queue length does an incoming req see
system.mem_ctrls.wrQLenPdf::35                      0                       # What write queue length does an incoming req see
system.mem_ctrls.wrQLenPdf::36                      0                       # What write queue length does an incoming req see
system.mem_ctrls.wrQLenPdf::37                      0                       # What write queue length does an incoming req see
system.mem_ctrls.wrQLenPdf::38                      0                       # What write queue length does an incoming req see
system.mem_ctrls.wrQLenPdf::39                      0                       # What write queue length does an incoming req see
system.mem_ctrls.wrQLenPdf::40                      0                       # What write queue length does an incoming req see
system.mem_ctrls.wrQLenPdf::41                      0                       # What write queue length does an incoming req see
system.mem_ctrls.wrQLenPdf::42                      0                       # What write queue length does an incoming req see
system.mem_ctrls.wrQLenPdf::43                      0                       # What write queue length does an incoming req see
system.mem_ctrls.wrQLenPdf::44                      0                       # What write queue length does an incoming req see
system.mem_ctrls.wrQLenPdf::45                      0                       # What write queue length does an incoming req see
system.mem_ctrls.wrQLenPdf::46                      0                       # What write queue length does an incoming req see
system.mem_ctrls.wrQLenPdf::47                      0                       # What write queue length does an incoming req see
system.mem_ctrls.wrQLenPdf::48                      0                       # What write queue length does an incoming req see
system.mem_ctrls.wrQLenPdf::49                      0                       # What write queue length does an incoming req see
system.mem_ctrls.wrQLenPdf::50                      0                       # What write queue length does an incoming req see
system.mem_ctrls.wrQLenPdf::51                      0                       # What write queue length does an incoming req see
system.mem_ctrls.wrQLenPdf::52                      0                       # What write queue length does an incoming req see
system.mem_ctrls.wrQLenPdf::53                      0                       # What write queue length does an incoming req see
system.mem_ctrls.wrQLenPdf::54                      0                       # What write queue length does an incoming req see
system.mem_ctrls.wrQLenPdf::55                      0                       # What write queue length does an incoming req see
system.mem_ctrls.wrQLenPdf::56                      0                       # What write queue length does an incoming req see
system.mem_ctrls.wrQLenPdf::57                      0                       # What write queue length does an incoming req see
system.mem_ctrls.wrQLenPdf::58                      0                       # What write queue length does an incoming req see
system.mem_ctrls.wrQLenPdf::59                      0                       # What write queue length does an incoming req see
system.mem_ctrls.wrQLenPdf::60                      0                       # What write queue length does an incoming req see
system.mem_ctrls.wrQLenPdf::61                      0                       # What write queue length does an incoming req see
system.mem_ctrls.wrQLenPdf::62                      0                       # What write queue length does an incoming req see
system.mem_ctrls.wrQLenPdf::63                      0                       # What write queue length does an incoming req see
system.mem_ctrls.writeBursts                  1455095                       # Number of DRAM write bursts, including those merged in the write queue
system.mem_ctrls.writePktSize::0                    0                       # Write request sizes (log2)
system.mem_ctrls.writePktSize::1                    0                       # Write request sizes (log2)
system.mem_ctrls.writePktSize::2                    0                       # Write request sizes (log2)
system.mem_ctrls.writePktSize::3                    0                       # Write request sizes (log2)
system.mem_ctrls.writePktSize::4                    0                       # Write request sizes (log2)
system.mem_ctrls.writePktSize::5                    0                       # Write request sizes (log2)
system.mem_ctrls.writePktSize::6              1455095                       # Write request sizes (log2)
system.mem_ctrls.writeReqs                    1455095                       # Number of write requests accepted
system.mem_ctrls.writeRowHitRate                88.78                       # Row buffer hit rate for writes
system.mem_ctrls.writeRowHits                 1291797                       # Number of row buffer hits during writes
system.mem_ctrls_0.actBackEnergy          61696251660                       # Energy for active background per rank (pJ)
system.mem_ctrls_0.actEnergy               1196956740                       # Energy for activate commands per rank (pJ)
system.mem_ctrls_0.actPowerDownEnergy               0                       # Energy for active power-down per rank (pJ)
system.mem_ctrls_0.averagePower            541.365111                       # Core power per rank (mW)
system.mem_ctrls_0.memoryStateTime::IDLE 126345728750                       # Time in different power states
system.mem_ctrls_0.memoryStateTime::REF    8809060000                       # Time in different power states
system.mem_ctrls_0.memoryStateTime::SREF            0                       # Time in different power states
system.mem_ctrls_0.memoryStateTime::PRE_PDN            0                       # Time in different power states
system.mem_ctrls_0.memoryStateTime::ACT  128652343250                       # Time in different power states
system.mem_ctrls_0.memoryStateTime::ACT_PDN            0                       # Time in different power states
system.mem_ctrls_0.preBackEnergy          49347200640                       # Energy for precharge background per rank (pJ)
system.mem_ctrls_0.preEnergy                636197595                       # Energy for precharge commands per rank (pJ)
system.mem_ctrls_0.prePowerDownEnergy               0                       # Energy for precharge power-down per rank (pJ)
system.mem_ctrls_0.readEnergy              5315694300                       # Energy for read commands per rank (pJ)
system.mem_ctrls_0.refreshEnergy         20824617840.000004                       # Energy for refresh commands per rank (pJ)
system.mem_ctrls_0.selfRefreshEnergy                0                       # Energy for self refresh per rank (pJ)
system.mem_ctrls_0.totalEnergy           142815977355                       # Total energy per rank (pJ)
system.mem_ctrls_0.totalIdleTime                    0                       # Total Idle time Per DRAM Rank
system.mem_ctrls_0.writeEnergy             3799058580                       # Energy for write commands per rank (pJ)
system.mem_ctrls_1.actBackEnergy          61596619650                       # Energy for active background per rank (pJ)
system.mem_ctrls_1.actEnergy               1192429980                       # Energy for activate commands per rank (pJ)
system.mem_ctrls_1.actPowerDownEnergy               0                       # Energy for active power-down per rank (pJ)
system.mem_ctrls_1.averagePower            541.254225                       # Core power per rank (mW)
system.mem_ctrls_1.memoryStateTime::IDLE 126572980500                       # Time in different power states
system.mem_ctrls_1.memoryStateTime::REF    8809060000                       # Time in different power states
system.mem_ctrls_1.memoryStateTime::SREF            0                       # Time in different power states
system.mem_ctrls_1.memoryStateTime::PRE_PDN            0                       # Time in different power states
system.mem_ctrls_1.memoryStateTime::ACT  128425091500                       # Time in different power states
system.mem_ctrls_1.memoryStateTime::ACT_PDN            0                       # Time in different power states
system.mem_ctrls_1.preBackEnergy          49431101280                       # Energy for precharge background per rank (pJ)
system.mem_ctrls_1.preEnergy                633787770                       # Energy for precharge commands per rank (pJ)
system.mem_ctrls_1.prePowerDownEnergy               0                       # Energy for precharge power-down per rank (pJ)
system.mem_ctrls_1.readEnergy              5311745880                       # Energy for read commands per rank (pJ)
system.mem_ctrls_1.refreshEnergy         20824617840.000004                       # Energy for refresh commands per rank (pJ)
system.mem_ctrls_1.selfRefreshEnergy                0                       # Energy for self refresh per rank (pJ)
system.mem_ctrls_1.totalEnergy           142786724880                       # Total energy per rank (pJ)
system.mem_ctrls_1.totalIdleTime                    0                       # Total Idle time Per DRAM Rank
system.mem_ctrls_1.writeEnergy             3796422480                       # Energy for write commands per rank (pJ)
system.membus.pkt_count_system.l2.mem_side::system.mem_ctrls.port      4432212                       # Packet count per connected master and slave (bytes)
system.membus.pkt_count::total                4432212                       # Packet count per connected master and slave (bytes)
system.membus.pkt_size_system.l2.mem_side::system.mem_ctrls.port    188386048                       # Cumulative packet size per connected master and slave (bytes)
system.membus.pkt_size::total               188386048                       # Cumulative packet size per connected master and slave (bytes)
system.membus.pwrStateResidencyTicks::UNDEFINED 263807132000                       # Cumulative time (in ticks) in various power states
system.membus.reqLayer0.occupancy          8764155000                       # Layer occupancy (ticks)
system.membus.reqLayer0.utilization               3.3                       # Layer utilization (%)
system.membus.respLayer1.occupancy         7834069750                       # Layer occupancy (ticks)
system.membus.respLayer1.utilization              3.0                       # Layer utilization (%)
system.membus.snoopTraffic                          0                       # Total snoop traffic (bytes)
system.membus.snoop_fanout::samples           1488437                       # Request fanout histogram
system.membus.snoop_fanout::mean                    0                       # Request fanout histogram
system.membus.snoop_fanout::stdev                   0                       # Request fanout histogram
system.membus.snoop_fanout::underflows              0      0.00%      0.00% # Request fanout histogram
system.membus.snoop_fanout::0                 1488437    100.00%    100.00% # Request fanout histogram
system.membus.snoop_fanout::1                       0      0.00%    100.00% # Request fanout histogram
system.membus.snoop_fanout::overflows               0      0.00%    100.00% # Request fanout histogram
system.membus.snoop_fanout::min_value               0                       # Request fanout histogram
system.membus.snoop_fanout::max_value               0                       # Request fanout histogram
system.membus.snoop_fanout::total             1488437                       # Request fanout histogram
system.membus.snoop_filter.hit_multi_requests            0                       # Number of requests hitting in the snoop filter with multiple (>1) holders of the requested data.
system.membus.snoop_filter.hit_multi_snoops            0                       # Number of snoops hitting in the snoop filter with multiple (>1) holders of the requested data.
system.membus.snoop_filter.hit_single_requests      1455338                       # Number of requests hitting in the snoop filter with a single holder of the requested data.
system.membus.snoop_filter.hit_single_snoops            0                       # Number of snoops hitting in the snoop filter with a single holder of the requested data.
system.membus.snoop_filter.tot_requests       2943775                       # Total number of requests made to the snoop filter.
system.membus.snoop_filter.tot_snoops               0                       # Total number of snoops made to the snoop filter.
system.membus.snoops                                0                       # Total snoops (count)
system.membus.trans_dist::ReadResp                590                       # Transaction distribution
system.membus.trans_dist::WritebackDirty      1455095                       # Transaction distribution
system.membus.trans_dist::CleanEvict              243                       # Transaction distribution
system.membus.trans_dist::ReadExReq           1487847                       # Transaction distribution
system.membus.trans_dist::ReadExResp          1487847                       # Transaction distribution
system.membus.trans_dist::ReadSharedReq           590                       # Transaction distribution
system.tol2bus.pkt_count_system.cpu.icache.mem_side::system.l2.cpu_side         1486                       # Packet count per connected master and slave (bytes)
system.tol2bus.pkt_count_system.cpu.dcache.mem_side::system.l2.cpu_side      4523885                       # Packet count per connected master and slave (bytes)
system.tol2bus.pkt_count::total               4525371                       # Packet count per connected master and slave (bytes)
system.tol2bus.pkt_size_system.cpu.icache.mem_side::system.l2.cpu_side        56320                       # Cumulative packet size per connected master and slave (bytes)
system.tol2bus.pkt_size_system.cpu.dcache.mem_side::system.l2.cpu_side    192619008                       # Cumulative packet size per connected master and slave (bytes)
system.tol2bus.pkt_size::total              192675328                       # Cumulative packet size per connected master and slave (bytes)
system.tol2bus.pwrStateResidencyTicks::UNDEFINED 263807132000                       # Cumulative time (in ticks) in various power states
system.tol2bus.reqLayer0.occupancy         6019748000                       # Layer occupancy (ticks)
system.tol2bus.reqLayer0.utilization              2.3                       # Layer utilization (%)
system.tol2bus.respLayer0.occupancy           1818000                       # Layer occupancy (ticks)
system.tol2bus.respLayer0.utilization             0.0                       # Layer utilization (%)
system.tol2bus.respLayer1.occupancy        4524912996                       # Layer occupancy (ticks)
system.tol2bus.respLayer1.utilization             1.7                       # Layer utilization (%)
system.tol2bus.snoopTraffic                  93126080                       # Total snoop traffic (bytes)
system.tol2bus.snoop_fanout::samples          2964578                       # Request fanout histogram
system.tol2bus.snoop_fanout::mean            0.002082                       # Request fanout histogram
system.tol2bus.snoop_fanout::stdev           0.045577                       # Request fanout histogram
system.tol2bus.snoop_fanout::underflows             0      0.00%      0.00% # Request fanout histogram
system.tol2bus.snoop_fanout::0                2958407     99.79%     99.79% # Request fanout histogram
system.tol2bus.snoop_fanout::1                   6171      0.21%    100.00% # Request fanout histogram
system.tol2bus.snoop_fanout::2                      0      0.00%    100.00% # Request fanout histogram
system.tol2bus.snoop_fanout::overflows              0      0.00%    100.00% # Request fanout histogram
system.tol2bus.snoop_fanout::min_value              0                       # Request fanout histogram
system.tol2bus.snoop_fanout::max_value              1                       # Request fanout histogram
system.tol2bus.snoop_fanout::total            2964578                       # Request fanout histogram
system.tol2bus.snoop_filter.hit_multi_requests         5839                       # Number of requests hitting in the snoop filter with multiple (>1) holders of the requested data.
system.tol2bus.snoop_filter.hit_multi_snoops            0                       # Number of snoops hitting in the snoop filter with multiple (>1) holders of the requested data.
system.tol2bus.snoop_filter.hit_single_requests      1507554                       # Number of requests hitting in the snoop filter with a single holder of the requested data.
system.tol2bus.snoop_filter.hit_single_snoops          331                       # Number of snoops hitting in the snoop filter with a single holder of the requested data.
system.tol2bus.snoop_filter.tot_requests      3016462                       # Total number of requests made to the snoop filter.
system.tol2bus.snoop_filter.tot_snoops            331                       # Total number of snoops made to the snoop filter.
system.tol2bus.snoops                         1455669                       # Total snoops (count)
system.tol2bus.trans_dist::ReadResp             12344                       # Transaction distribution
system.tol2bus.trans_dist::WritebackDirty      2956464                       # Transaction distribution
system.tol2bus.trans_dist::WritebackClean          274                       # Transaction distribution
system.tol2bus.trans_dist::CleanEvict            6484                       # Transaction distribution
system.tol2bus.trans_dist::ReadExReq          1496565                       # Transaction distribution
system.tol2bus.trans_dist::ReadExResp         1496565                       # Transaction distribution
system.tol2bus.trans_dist::ReadCleanReq           606                       # Transaction distribution
system.tol2bus.trans_dist::ReadSharedReq        11738                       # Transaction distribution
system.voltage_domain.voltage                       1                       # Voltage in Volts

---------- End Simulation Statistics   ----------
