
---------- Begin Simulation Statistics ----------
final_tick                               705673264000                       # Number of ticks from beginning of simulation (restored from checkpoints and never reset)
host_inst_rate                                  98740                       # Simulator instruction rate (inst/s)
host_mem_usage                                 741392                       # Number of bytes of host memory used
host_op_rate                                   181858                       # Simulator op (including micro ops) rate (op/s)
host_seconds                                  1012.76                       # Real time elapsed on the host
host_tick_rate                              696783963                       # Simulator tick rate (ticks/s)
sim_freq                                 1000000000000                       # Frequency of simulated ticks
sim_insts                                   100000000                       # Number of instructions simulated
sim_ops                                     184177569                       # Number of ops (including micro ops) simulated
sim_seconds                                  0.705673                       # Number of seconds simulated
sim_ticks                                705673264000                       # Number of ticks simulated
system.clk_domain.clock                          1000                       # Clock period in ticks
system.cpu.branchPred.BTBCorrect                    0                       # Number of correct BTB predictions (this stat may not work properly.
system.cpu.branchPred.BTBHitPct             99.958545                       # BTB Hit Percentage
system.cpu.branchPred.BTBHits                10561409                       # Number of BTB hits
system.cpu.branchPred.BTBLookups             10565789                       # Number of BTB lookups
system.cpu.branchPred.RASInCorrect                  5                       # Number of incorrect RAS predictions.
system.cpu.branchPred.condIncorrect              1462                       # Number of conditional branches incorrect
system.cpu.branchPred.condPredicted          10562389                       # Number of conditional branches predicted
system.cpu.branchPred.indirectHits                 27                       # Number of indirect target hits.
system.cpu.branchPred.indirectLookups             197                       # Number of indirect predictor lookups.
system.cpu.branchPred.indirectMisses              170                       # Number of indirect misses.
system.cpu.branchPred.lookups                10570539                       # Number of BP lookups
system.cpu.branchPred.usedRAS                    2707                       # Number of times the RAS was used to get a target.
system.cpu.branchPredindirectMispredicted          102                       # Number of mispredicted indirect branches.
system.cpu.committedInsts                   100000000                       # Number of instructions committed
system.cpu.committedOps                     184177569                       # Number of ops (including micro ops) committed
system.cpu.cpi                               7.056733                       # CPI: cycles per instruction
system.cpu.dcache.LoadLockedReq_accesses::.cpu.data           34                       # number of LoadLockedReq accesses(hits+misses)
system.cpu.dcache.LoadLockedReq_accesses::total           34                       # number of LoadLockedReq accesses(hits+misses)
system.cpu.dcache.LoadLockedReq_avg_miss_latency::.cpu.data        95000                       # average LoadLockedReq miss latency
system.cpu.dcache.LoadLockedReq_avg_miss_latency::total        95000                       # average LoadLockedReq miss latency
system.cpu.dcache.LoadLockedReq_avg_mshr_miss_latency::.cpu.data        93000                       # average LoadLockedReq mshr miss latency
system.cpu.dcache.LoadLockedReq_avg_mshr_miss_latency::total        93000                       # average LoadLockedReq mshr miss latency
system.cpu.dcache.LoadLockedReq_hits::.cpu.data           33                       # number of LoadLockedReq hits
system.cpu.dcache.LoadLockedReq_hits::total           33                       # number of LoadLockedReq hits
system.cpu.dcache.LoadLockedReq_miss_latency::.cpu.data        95000                       # number of LoadLockedReq miss cycles
system.cpu.dcache.LoadLockedReq_miss_latency::total        95000                       # number of LoadLockedReq miss cycles
system.cpu.dcache.LoadLockedReq_miss_rate::.cpu.data     0.029412                       # miss rate for LoadLockedReq accesses
system.cpu.dcache.LoadLockedReq_miss_rate::total     0.029412                       # miss rate for LoadLockedReq accesses
system.cpu.dcache.LoadLockedReq_misses::.cpu.data            1                       # number of LoadLockedReq misses
system.cpu.dcache.LoadLockedReq_misses::total            1                       # number of LoadLockedReq misses
system.cpu.dcache.LoadLockedReq_mshr_miss_latency::.cpu.data        93000                       # number of LoadLockedReq MSHR miss cycles
system.cpu.dcache.LoadLockedReq_mshr_miss_latency::total        93000                       # number of LoadLockedReq MSHR miss cycles
system.cpu.dcache.LoadLockedReq_mshr_miss_rate::.cpu.data     0.029412                       # mshr miss rate for LoadLockedReq accesses
system.cpu.dcache.LoadLockedReq_mshr_miss_rate::total     0.029412                       # mshr miss rate for LoadLockedReq accesses
system.cpu.dcache.LoadLockedReq_mshr_misses::.cpu.data            1                       # number of LoadLockedReq MSHR misses
system.cpu.dcache.LoadLockedReq_mshr_misses::total            1                       # number of LoadLockedReq MSHR misses
system.cpu.dcache.ReadReq_accesses::.cpu.data      2043776                       # number of ReadReq accesses(hits+misses)
system.cpu.dcache.ReadReq_accesses::total      2043776                       # number of ReadReq accesses(hits+misses)
system.cpu.dcache.ReadReq_avg_miss_latency::.cpu.data 27354.764457                       # average ReadReq miss latency
system.cpu.dcache.ReadReq_avg_miss_latency::total 27354.764457                       # average ReadReq miss latency
system.cpu.dcache.ReadReq_avg_mshr_miss_latency::.cpu.data 25326.902144                       # average ReadReq mshr miss latency
system.cpu.dcache.ReadReq_avg_mshr_miss_latency::total 25326.902144                       # average ReadReq mshr miss latency
system.cpu.dcache.ReadReq_hits::.cpu.data      1980348                       # number of ReadReq hits
system.cpu.dcache.ReadReq_hits::total         1980348                       # number of ReadReq hits
system.cpu.dcache.ReadReq_miss_latency::.cpu.data   1735058000                       # number of ReadReq miss cycles
system.cpu.dcache.ReadReq_miss_latency::total   1735058000                       # number of ReadReq miss cycles
system.cpu.dcache.ReadReq_miss_rate::.cpu.data     0.031035                       # miss rate for ReadReq accesses
system.cpu.dcache.ReadReq_miss_rate::total     0.031035                       # miss rate for ReadReq accesses
system.cpu.dcache.ReadReq_misses::.cpu.data        63428                       # number of ReadReq misses
system.cpu.dcache.ReadReq_misses::total         63428                       # number of ReadReq misses
system.cpu.dcache.ReadReq_mshr_hits::.cpu.data           39                       # number of ReadReq MSHR hits
system.cpu.dcache.ReadReq_mshr_hits::total           39                       # number of ReadReq MSHR hits
system.cpu.dcache.ReadReq_mshr_miss_latency::.cpu.data   1605447000                       # number of ReadReq MSHR miss cycles
system.cpu.dcache.ReadReq_mshr_miss_latency::total   1605447000                       # number of ReadReq MSHR miss cycles
system.cpu.dcache.ReadReq_mshr_miss_rate::.cpu.data     0.031016                       # mshr miss rate for ReadReq accesses
system.cpu.dcache.ReadReq_mshr_miss_rate::total     0.031016                       # mshr miss rate for ReadReq accesses
system.cpu.dcache.ReadReq_mshr_misses::.cpu.data        63389                       # number of ReadReq MSHR misses
system.cpu.dcache.ReadReq_mshr_misses::total        63389                       # number of ReadReq MSHR misses
system.cpu.dcache.SoftPFReq_accesses::.cpu.data           38                       # number of SoftPFReq accesses(hits+misses)
system.cpu.dcache.SoftPFReq_accesses::total           38                       # number of SoftPFReq accesses(hits+misses)
system.cpu.dcache.SoftPFReq_avg_mshr_miss_latency::.cpu.data       120500                       # average SoftPFReq mshr miss latency
system.cpu.dcache.SoftPFReq_avg_mshr_miss_latency::total       120500                       # average SoftPFReq mshr miss latency
system.cpu.dcache.SoftPFReq_hits::.cpu.data           21                       # number of SoftPFReq hits
system.cpu.dcache.SoftPFReq_hits::total            21                       # number of SoftPFReq hits
system.cpu.dcache.SoftPFReq_miss_rate::.cpu.data     0.447368                       # miss rate for SoftPFReq accesses
system.cpu.dcache.SoftPFReq_miss_rate::total     0.447368                       # miss rate for SoftPFReq accesses
system.cpu.dcache.SoftPFReq_misses::.cpu.data           17                       # number of SoftPFReq misses
system.cpu.dcache.SoftPFReq_misses::total           17                       # number of SoftPFReq misses
system.cpu.dcache.SoftPFReq_mshr_miss_latency::.cpu.data      1446000                       # number of SoftPFReq MSHR miss cycles
system.cpu.dcache.SoftPFReq_mshr_miss_latency::total      1446000                       # number of SoftPFReq MSHR miss cycles
system.cpu.dcache.SoftPFReq_mshr_miss_rate::.cpu.data     0.315789                       # mshr miss rate for SoftPFReq accesses
system.cpu.dcache.SoftPFReq_mshr_miss_rate::total     0.315789                       # mshr miss rate for SoftPFReq accesses
system.cpu.dcache.SoftPFReq_mshr_misses::.cpu.data           12                       # number of SoftPFReq MSHR misses
system.cpu.dcache.SoftPFReq_mshr_misses::total           12                       # number of SoftPFReq MSHR misses
system.cpu.dcache.StoreCondReq_accesses::.cpu.data           34                       # number of StoreCondReq accesses(hits+misses)
system.cpu.dcache.StoreCondReq_accesses::total           34                       # number of StoreCondReq accesses(hits+misses)
system.cpu.dcache.StoreCondReq_hits::.cpu.data           34                       # number of StoreCondReq hits
system.cpu.dcache.StoreCondReq_hits::total           34                       # number of StoreCondReq hits
system.cpu.dcache.WriteReq_accesses::.cpu.data     84339639                       # number of WriteReq accesses(hits+misses)
system.cpu.dcache.WriteReq_accesses::total     84339639                       # number of WriteReq accesses(hits+misses)
system.cpu.dcache.WriteReq_avg_miss_latency::.cpu.data 105188.982524                       # average WriteReq miss latency
system.cpu.dcache.WriteReq_avg_miss_latency::total 105188.982524                       # average WriteReq miss latency
system.cpu.dcache.WriteReq_avg_mshr_miss_latency::.cpu.data 102681.914737                       # average WriteReq mshr miss latency
system.cpu.dcache.WriteReq_avg_mshr_miss_latency::total 102681.914737                       # average WriteReq mshr miss latency
system.cpu.dcache.WriteReq_hits::.cpu.data     73814470                       # number of WriteReq hits
system.cpu.dcache.WriteReq_hits::total       73814470                       # number of WriteReq hits
system.cpu.dcache.WriteReq_miss_latency::.cpu.data 1107131818000                       # number of WriteReq miss cycles
system.cpu.dcache.WriteReq_miss_latency::total 1107131818000                       # number of WriteReq miss cycles
system.cpu.dcache.WriteReq_miss_rate::.cpu.data     0.124795                       # miss rate for WriteReq accesses
system.cpu.dcache.WriteReq_miss_rate::total     0.124795                       # miss rate for WriteReq accesses
system.cpu.dcache.WriteReq_misses::.cpu.data     10525169                       # number of WriteReq misses
system.cpu.dcache.WriteReq_misses::total     10525169                       # number of WriteReq misses
system.cpu.dcache.WriteReq_mshr_hits::.cpu.data      5260656                       # number of WriteReq MSHR hits
system.cpu.dcache.WriteReq_mshr_hits::total      5260656                       # number of WriteReq MSHR hits
system.cpu.dcache.WriteReq_mshr_miss_latency::.cpu.data 540570275000                       # number of WriteReq MSHR miss cycles
system.cpu.dcache.WriteReq_mshr_miss_latency::total 540570275000                       # number of WriteReq MSHR miss cycles
system.cpu.dcache.WriteReq_mshr_miss_rate::.cpu.data     0.062420                       # mshr miss rate for WriteReq accesses
system.cpu.dcache.WriteReq_mshr_miss_rate::total     0.062420                       # mshr miss rate for WriteReq accesses
system.cpu.dcache.WriteReq_mshr_misses::.cpu.data      5264513                       # number of WriteReq MSHR misses
system.cpu.dcache.WriteReq_mshr_misses::total      5264513                       # number of WriteReq MSHR misses
system.cpu.dcache.avg_blocked_cycles::no_mshrs          nan                       # average number of cycles each access was blocked
system.cpu.dcache.avg_blocked_cycles::no_targets          nan                       # average number of cycles each access was blocked
system.cpu.dcache.blocked::no_mshrs                 0                       # number of cycles access was blocked
system.cpu.dcache.blocked::no_targets               0                       # number of cycles access was blocked
system.cpu.dcache.blocked_cycles::no_mshrs            0                       # number of cycles access was blocked
system.cpu.dcache.blocked_cycles::no_targets            0                       # number of cycles access was blocked
system.cpu.dcache.demand_accesses::.cpu.data     86383415                       # number of demand (read+write) accesses
system.cpu.dcache.demand_accesses::total     86383415                       # number of demand (read+write) accesses
system.cpu.dcache.demand_avg_miss_latency::.cpu.data 104722.738622                       # average overall miss latency
system.cpu.dcache.demand_avg_miss_latency::total 104722.738622                       # average overall miss latency
system.cpu.dcache.demand_avg_mshr_miss_latency::.cpu.data 101761.579323                       # average overall mshr miss latency
system.cpu.dcache.demand_avg_mshr_miss_latency::total 101761.579323                       # average overall mshr miss latency
system.cpu.dcache.demand_hits::.cpu.data     75794818                       # number of demand (read+write) hits
system.cpu.dcache.demand_hits::total         75794818                       # number of demand (read+write) hits
system.cpu.dcache.demand_miss_latency::.cpu.data 1108866876000                       # number of demand (read+write) miss cycles
system.cpu.dcache.demand_miss_latency::total 1108866876000                       # number of demand (read+write) miss cycles
system.cpu.dcache.demand_miss_rate::.cpu.data     0.122577                       # miss rate for demand accesses
system.cpu.dcache.demand_miss_rate::total     0.122577                       # miss rate for demand accesses
system.cpu.dcache.demand_misses::.cpu.data     10588597                       # number of demand (read+write) misses
system.cpu.dcache.demand_misses::total       10588597                       # number of demand (read+write) misses
system.cpu.dcache.demand_mshr_hits::.cpu.data      5260695                       # number of demand (read+write) MSHR hits
system.cpu.dcache.demand_mshr_hits::total      5260695                       # number of demand (read+write) MSHR hits
system.cpu.dcache.demand_mshr_miss_latency::.cpu.data 542175722000                       # number of demand (read+write) MSHR miss cycles
system.cpu.dcache.demand_mshr_miss_latency::total 542175722000                       # number of demand (read+write) MSHR miss cycles
system.cpu.dcache.demand_mshr_miss_rate::.cpu.data     0.061677                       # mshr miss rate for demand accesses
system.cpu.dcache.demand_mshr_miss_rate::total     0.061677                       # mshr miss rate for demand accesses
system.cpu.dcache.demand_mshr_misses::.cpu.data      5327902                       # number of demand (read+write) MSHR misses
system.cpu.dcache.demand_mshr_misses::total      5327902                       # number of demand (read+write) MSHR misses
system.cpu.dcache.overall_accesses::.cpu.data     86383453                       # number of overall (read+write) accesses
system.cpu.dcache.overall_accesses::total     86383453                       # number of overall (read+write) accesses
system.cpu.dcache.overall_avg_miss_latency::.cpu.data 104722.570489                       # average overall miss latency
system.cpu.dcache.overall_avg_miss_latency::total 104722.570489                       # average overall miss latency
system.cpu.dcache.overall_avg_mshr_miss_latency::.cpu.data 101761.621528                       # average overall mshr miss latency
system.cpu.dcache.overall_avg_mshr_miss_latency::total 101761.621528                       # average overall mshr miss latency
system.cpu.dcache.overall_hits::.cpu.data     75794839                       # number of overall hits
system.cpu.dcache.overall_hits::total        75794839                       # number of overall hits
system.cpu.dcache.overall_miss_latency::.cpu.data 1108866876000                       # number of overall miss cycles
system.cpu.dcache.overall_miss_latency::total 1108866876000                       # number of overall miss cycles
system.cpu.dcache.overall_miss_rate::.cpu.data     0.122577                       # miss rate for overall accesses
system.cpu.dcache.overall_miss_rate::total     0.122577                       # miss rate for overall accesses
system.cpu.dcache.overall_misses::.cpu.data     10588614                       # number of overall misses
system.cpu.dcache.overall_misses::total      10588614                       # number of overall misses
system.cpu.dcache.overall_mshr_hits::.cpu.data      5260695                       # number of overall MSHR hits
system.cpu.dcache.overall_mshr_hits::total      5260695                       # number of overall MSHR hits
system.cpu.dcache.overall_mshr_miss_latency::.cpu.data 542177168000                       # number of overall MSHR miss cycles
system.cpu.dcache.overall_mshr_miss_latency::total 542177168000                       # number of overall MSHR miss cycles
system.cpu.dcache.overall_mshr_miss_rate::.cpu.data     0.061677                       # mshr miss rate for overall accesses
system.cpu.dcache.overall_mshr_miss_rate::total     0.061677                       # mshr miss rate for overall accesses
system.cpu.dcache.overall_mshr_misses::.cpu.data      5327914                       # number of overall MSHR misses
system.cpu.dcache.overall_mshr_misses::total      5327914                       # number of overall MSHR misses
system.cpu.dcache.pwrStateResidencyTicks::UNDEFINED 705673264000                       # Cumulative time (in ticks) in various power states
system.cpu.dcache.replacements                5326891                       # number of replacements
system.cpu.dcache.tags.age_task_id_blocks_1024::0           76                       # Occupied blocks per task id
system.cpu.dcache.tags.age_task_id_blocks_1024::1          678                       # Occupied blocks per task id
system.cpu.dcache.tags.age_task_id_blocks_1024::2          270                       # Occupied blocks per task id
system.cpu.dcache.tags.avg_refs             15.225998                       # Average number of references to valid blocks.
system.cpu.dcache.tags.data_accesses         91711436                       # Number of data accesses
system.cpu.dcache.tags.occ_blocks::.cpu.data  1022.490321                       # Average occupied blocks per requestor
system.cpu.dcache.tags.occ_percent::.cpu.data     0.998526                       # Average percentage of cache occupancy
system.cpu.dcache.tags.occ_percent::total     0.998526                       # Average percentage of cache occupancy
system.cpu.dcache.tags.occ_task_id_blocks::1024         1024                       # Occupied blocks per task id
system.cpu.dcache.tags.occ_task_id_percent::1024            1                       # Percentage of cache occupancy per task id
system.cpu.dcache.tags.pwrStateResidencyTicks::UNDEFINED 705673264000                       # Cumulative time (in ticks) in various power states
system.cpu.dcache.tags.sampled_refs           5327915                       # Sample count of references to valid blocks.
system.cpu.dcache.tags.tag_accesses          91711436                       # Number of tag accesses
system.cpu.dcache.tags.tagsinuse          1022.490321                       # Cycle average of tags in use
system.cpu.dcache.tags.total_refs            81122821                       # Total number of references to valid blocks.
system.cpu.dcache.tags.warmup_cycle            223000                       # Cycle when the warmup percentage was hit.
system.cpu.dcache.writebacks::.writebacks      5263816                       # number of writebacks
system.cpu.dcache.writebacks::total           5263816                       # number of writebacks
system.cpu.discardedOps                          4302                       # Number of ops (including micro ops) which were discarded before commit
system.cpu.dstage2_mmu.stage2_tlb.accesses            0                       # DTB accesses
system.cpu.dstage2_mmu.stage2_tlb.align_faults            0                       # Number of TLB faults due to alignment restrictions
system.cpu.dstage2_mmu.stage2_tlb.domain_faults            0                       # Number of TLB faults due to domain restrictions
system.cpu.dstage2_mmu.stage2_tlb.flush_entries            0                       # Number of entries that have been flushed from TLB
system.cpu.dstage2_mmu.stage2_tlb.flush_tlb            0                       # Number of times complete TLB was flushed
system.cpu.dstage2_mmu.stage2_tlb.flush_tlb_asid            0                       # Number of times TLB was flushed by ASID
system.cpu.dstage2_mmu.stage2_tlb.flush_tlb_mva            0                       # Number of times TLB was flushed by MVA
system.cpu.dstage2_mmu.stage2_tlb.flush_tlb_mva_asid            0                       # Number of times TLB was flushed by MVA & ASID
system.cpu.dstage2_mmu.stage2_tlb.hits              0                       # DTB hits
system.cpu.dstage2_mmu.stage2_tlb.inst_accesses            0                       # ITB inst accesses
system.cpu.dstage2_mmu.stage2_tlb.inst_hits            0                       # ITB inst hits
system.cpu.dstage2_mmu.stage2_tlb.inst_misses            0                       # ITB inst misses
system.cpu.dstage2_mmu.stage2_tlb.misses            0                       # DTB misses
system.cpu.dstage2_mmu.stage2_tlb.perms_faults            0                       # Number of TLB faults due to permissions restrictions
system.cpu.dstage2_mmu.stage2_tlb.prefetch_faults            0                       # Number of TLB faults due to prefetch
system.cpu.dstage2_mmu.stage2_tlb.read_accesses            0                       # DTB read accesses
system.cpu.dstage2_mmu.stage2_tlb.read_hits            0                       # DTB read hits
system.cpu.dstage2_mmu.stage2_tlb.read_misses            0                       # DTB read misses
system.cpu.dstage2_mmu.stage2_tlb.walker.pwrStateResidencyTicks::UNDEFINED 705673264000                       # Cumulative time (in ticks) in various power states
system.cpu.dstage2_mmu.stage2_tlb.walker.walkRequestOrigin_Requested::Data            0                       # Table walker requests started/completed, data/inst
system.cpu.dstage2_mmu.stage2_tlb.walker.walkRequestOrigin_Requested::Inst            0                       # Table walker requests started/completed, data/inst
system.cpu.dstage2_mmu.stage2_tlb.walker.walkRequestOrigin_Requested::total            0                       # Table walker requests started/completed, data/inst
system.cpu.dstage2_mmu.stage2_tlb.walker.walkRequestOrigin_Completed::Data            0                       # Table walker requests started/completed, data/inst
system.cpu.dstage2_mmu.stage2_tlb.walker.walkRequestOrigin_Completed::Inst            0                       # Table walker requests started/completed, data/inst
system.cpu.dstage2_mmu.stage2_tlb.walker.walkRequestOrigin_Completed::total            0                       # Table walker requests started/completed, data/inst
system.cpu.dstage2_mmu.stage2_tlb.walker.walkRequestOrigin::total            0                       # Table walker requests started/completed, data/inst
system.cpu.dstage2_mmu.stage2_tlb.walker.walks            0                       # Table walker walks requested
system.cpu.dstage2_mmu.stage2_tlb.write_accesses            0                       # DTB write accesses
system.cpu.dstage2_mmu.stage2_tlb.write_hits            0                       # DTB write hits
system.cpu.dstage2_mmu.stage2_tlb.write_misses            0                       # DTB write misses
system.cpu.dtb.accesses                             0                       # DTB accesses
system.cpu.dtb.align_faults                         0                       # Number of TLB faults due to alignment restrictions
system.cpu.dtb.domain_faults                        0                       # Number of TLB faults due to domain restrictions
system.cpu.dtb.flush_entries                        0                       # Number of entries that have been flushed from TLB
system.cpu.dtb.flush_tlb                            0                       # Number of times complete TLB was flushed
system.cpu.dtb.flush_tlb_asid                       0                       # Number of times TLB was flushed by ASID
system.cpu.dtb.flush_tlb_mva                        0                       # Number of times TLB was flushed by MVA
system.cpu.dtb.flush_tlb_mva_asid                   0                       # Number of times TLB was flushed by MVA & ASID
system.cpu.dtb.hits                                 0                       # DTB hits
system.cpu.dtb.inst_accesses                        0                       # ITB inst accesses
system.cpu.dtb.inst_hits                            0                       # ITB inst hits
system.cpu.dtb.inst_misses                          0                       # ITB inst misses
system.cpu.dtb.misses                               0                       # DTB misses
system.cpu.dtb.perms_faults                         0                       # Number of TLB faults due to permissions restrictions
system.cpu.dtb.prefetch_faults                      0                       # Number of TLB faults due to prefetch
system.cpu.dtb.read_accesses                        0                       # DTB read accesses
system.cpu.dtb.read_hits                            0                       # DTB read hits
system.cpu.dtb.read_misses                          0                       # DTB read misses
system.cpu.dtb.walker.pwrStateResidencyTicks::UNDEFINED 705673264000                       # Cumulative time (in ticks) in various power states
system.cpu.dtb.walker.walkRequestOrigin_Requested::Data            0                       # Table walker requests started/completed, data/inst
system.cpu.dtb.walker.walkRequestOrigin_Requested::Inst            0                       # Table walker requests started/completed, data/inst
system.cpu.dtb.walker.walkRequestOrigin_Requested::total            0                       # Table walker requests started/completed, data/inst
system.cpu.dtb.walker.walkRequestOrigin_Completed::Data            0                       # Table walker requests started/completed, data/inst
system.cpu.dtb.walker.walkRequestOrigin_Completed::Inst            0                       # Table walker requests started/completed, data/inst
system.cpu.dtb.walker.walkRequestOrigin_Completed::total            0                       # Table walker requests started/completed, data/inst
system.cpu.dtb.walker.walkRequestOrigin::total            0                       # Table walker requests started/completed, data/inst
system.cpu.dtb.walker.walks                         0                       # Table walker walks requested
system.cpu.dtb.write_accesses                       0                       # DTB write accesses
system.cpu.dtb.write_hits                           0                       # DTB write hits
system.cpu.dtb.write_misses                         0                       # DTB write misses
system.cpu.fetch2.amo_instructions                  0                       # Number of memory atomic instructions successfully decoded
system.cpu.fetch2.fp_instructions                   0                       # Number of floating point instructions successfully decoded
system.cpu.fetch2.int_instructions           44892595                       # Number of integer instructions successfully decoded
system.cpu.fetch2.load_instructions           2086538                       # Number of memory load instructions successfully decoded
system.cpu.fetch2.store_instructions           169411                       # Number of memory store instructions successfully decoded
system.cpu.fetch2.vec_instructions                  0                       # Number of SIMD instructions successfully decoded
system.cpu.icache.ReadReq_accesses::.cpu.inst     42407888                       # number of ReadReq accesses(hits+misses)
system.cpu.icache.ReadReq_accesses::total     42407888                       # number of ReadReq accesses(hits+misses)
system.cpu.icache.ReadReq_avg_miss_latency::.cpu.inst 93789.855072                       # average ReadReq miss latency
system.cpu.icache.ReadReq_avg_miss_latency::total 93789.855072                       # average ReadReq miss latency
system.cpu.icache.ReadReq_avg_mshr_miss_latency::.cpu.inst 91789.855072                       # average ReadReq mshr miss latency
system.cpu.icache.ReadReq_avg_mshr_miss_latency::total 91789.855072                       # average ReadReq mshr miss latency
system.cpu.icache.ReadReq_hits::.cpu.inst     42407198                       # number of ReadReq hits
system.cpu.icache.ReadReq_hits::total        42407198                       # number of ReadReq hits
system.cpu.icache.ReadReq_miss_latency::.cpu.inst     64715000                       # number of ReadReq miss cycles
system.cpu.icache.ReadReq_miss_latency::total     64715000                       # number of ReadReq miss cycles
system.cpu.icache.ReadReq_miss_rate::.cpu.inst     0.000016                       # miss rate for ReadReq accesses
system.cpu.icache.ReadReq_miss_rate::total     0.000016                       # miss rate for ReadReq accesses
system.cpu.icache.ReadReq_misses::.cpu.inst          690                       # number of ReadReq misses
system.cpu.icache.ReadReq_misses::total           690                       # number of ReadReq misses
system.cpu.icache.ReadReq_mshr_miss_latency::.cpu.inst     63335000                       # number of ReadReq MSHR miss cycles
system.cpu.icache.ReadReq_mshr_miss_latency::total     63335000                       # number of ReadReq MSHR miss cycles
system.cpu.icache.ReadReq_mshr_miss_rate::.cpu.inst     0.000016                       # mshr miss rate for ReadReq accesses
system.cpu.icache.ReadReq_mshr_miss_rate::total     0.000016                       # mshr miss rate for ReadReq accesses
system.cpu.icache.ReadReq_mshr_misses::.cpu.inst          690                       # number of ReadReq MSHR misses
system.cpu.icache.ReadReq_mshr_misses::total          690                       # number of ReadReq MSHR misses
system.cpu.icache.avg_blocked_cycles::no_mshrs          nan                       # average number of cycles each access was blocked
system.cpu.icache.avg_blocked_cycles::no_targets          nan                       # average number of cycles each access was blocked
system.cpu.icache.blocked::no_mshrs                 0                       # number of cycles access was blocked
system.cpu.icache.blocked::no_targets               0                       # number of cycles access was blocked
system.cpu.icache.blocked_cycles::no_mshrs            0                       # number of cycles access was blocked
system.cpu.icache.blocked_cycles::no_targets            0                       # number of cycles access was blocked
system.cpu.icache.demand_accesses::.cpu.inst     42407888                       # number of demand (read+write) accesses
system.cpu.icache.demand_accesses::total     42407888                       # number of demand (read+write) accesses
system.cpu.icache.demand_avg_miss_latency::.cpu.inst 93789.855072                       # average overall miss latency
system.cpu.icache.demand_avg_miss_latency::total 93789.855072                       # average overall miss latency
system.cpu.icache.demand_avg_mshr_miss_latency::.cpu.inst 91789.855072                       # average overall mshr miss latency
system.cpu.icache.demand_avg_mshr_miss_latency::total 91789.855072                       # average overall mshr miss latency
system.cpu.icache.demand_hits::.cpu.inst     42407198                       # number of demand (read+write) hits
system.cpu.icache.demand_hits::total         42407198                       # number of demand (read+write) hits
system.cpu.icache.demand_miss_latency::.cpu.inst     64715000                       # number of demand (read+write) miss cycles
system.cpu.icache.demand_miss_latency::total     64715000                       # number of demand (read+write) miss cycles
system.cpu.icache.demand_miss_rate::.cpu.inst     0.000016                       # miss rate for demand accesses
system.cpu.icache.demand_miss_rate::total     0.000016                       # miss rate for demand accesses
system.cpu.icache.demand_misses::.cpu.inst          690                       # number of demand (read+write) misses
system.cpu.icache.demand_misses::total            690                       # number of demand (read+write) misses
system.cpu.icache.demand_mshr_miss_latency::.cpu.inst     63335000                       # number of demand (read+write) MSHR miss cycles
system.cpu.icache.demand_mshr_miss_latency::total     63335000                       # number of demand (read+write) MSHR miss cycles
system.cpu.icache.demand_mshr_miss_rate::.cpu.inst     0.000016                       # mshr miss rate for demand accesses
system.cpu.icache.demand_mshr_miss_rate::total     0.000016                       # mshr miss rate for demand accesses
system.cpu.icache.demand_mshr_misses::.cpu.inst          690                       # number of demand (read+write) MSHR misses
system.cpu.icache.demand_mshr_misses::total          690                       # number of demand (read+write) MSHR misses
system.cpu.icache.overall_accesses::.cpu.inst     42407888                       # number of overall (read+write) accesses
system.cpu.icache.overall_accesses::total     42407888                       # number of overall (read+write) accesses
system.cpu.icache.overall_avg_miss_latency::.cpu.inst 93789.855072                       # average overall miss latency
system.cpu.icache.overall_avg_miss_latency::total 93789.855072                       # average overall miss latency
system.cpu.icache.overall_avg_mshr_miss_latency::.cpu.inst 91789.855072                       # average overall mshr miss latency
system.cpu.icache.overall_avg_mshr_miss_latency::total 91789.855072                       # average overall mshr miss latency
system.cpu.icache.overall_hits::.cpu.inst     42407198                       # number of overall hits
system.cpu.icache.overall_hits::total        42407198                       # number of overall hits
system.cpu.icache.overall_miss_latency::.cpu.inst     64715000                       # number of overall miss cycles
system.cpu.icache.overall_miss_latency::total     64715000                       # number of overall miss cycles
system.cpu.icache.overall_miss_rate::.cpu.inst     0.000016                       # miss rate for overall accesses
system.cpu.icache.overall_miss_rate::total     0.000016                       # miss rate for overall accesses
system.cpu.icache.overall_misses::.cpu.inst          690                       # number of overall misses
system.cpu.icache.overall_misses::total           690                       # number of overall misses
system.cpu.icache.overall_mshr_miss_latency::.cpu.inst     63335000                       # number of overall MSHR miss cycles
system.cpu.icache.overall_mshr_miss_latency::total     63335000                       # number of overall MSHR miss cycles
system.cpu.icache.overall_mshr_miss_rate::.cpu.inst     0.000016                       # mshr miss rate for overall accesses
system.cpu.icache.overall_mshr_miss_rate::total     0.000016                       # mshr miss rate for overall accesses
system.cpu.icache.overall_mshr_misses::.cpu.inst          690                       # number of overall MSHR misses
system.cpu.icache.overall_mshr_misses::total          690                       # number of overall MSHR misses
system.cpu.icache.pwrStateResidencyTicks::UNDEFINED 705673264000                       # Cumulative time (in ticks) in various power states
system.cpu.icache.replacements                    328                       # number of replacements
system.cpu.icache.tags.age_task_id_blocks_1024::4          362                       # Occupied blocks per task id
system.cpu.icache.tags.avg_refs          61460.707246                       # Average number of references to valid blocks.
system.cpu.icache.tags.data_accesses         42408578                       # Number of data accesses
system.cpu.icache.tags.occ_blocks::.cpu.inst   331.406247                       # Average occupied blocks per requestor
system.cpu.icache.tags.occ_percent::.cpu.inst     0.647278                       # Average percentage of cache occupancy
system.cpu.icache.tags.occ_percent::total     0.647278                       # Average percentage of cache occupancy
system.cpu.icache.tags.occ_task_id_blocks::1024          362                       # Occupied blocks per task id
system.cpu.icache.tags.occ_task_id_percent::1024     0.707031                       # Percentage of cache occupancy per task id
system.cpu.icache.tags.pwrStateResidencyTicks::UNDEFINED 705673264000                       # Cumulative time (in ticks) in various power states
system.cpu.icache.tags.sampled_refs               690                       # Sample count of references to valid blocks.
system.cpu.icache.tags.tag_accesses          42408578                       # Number of tag accesses
system.cpu.icache.tags.tagsinuse           331.406247                       # Cycle average of tags in use
system.cpu.icache.tags.total_refs            42407888                       # Total number of references to valid blocks.
system.cpu.icache.tags.warmup_cycle            108000                       # Cycle when the warmup percentage was hit.
system.cpu.icache.writebacks::.writebacks          328                       # number of writebacks
system.cpu.icache.writebacks::total               328                       # number of writebacks
system.cpu.idleCycles                       452749849                       # Total number of cycles that the object has spent stopped
system.cpu.ipc                               0.141709                       # IPC: instructions per cycle
system.cpu.istage2_mmu.stage2_tlb.accesses            0                       # DTB accesses
system.cpu.istage2_mmu.stage2_tlb.align_faults            0                       # Number of TLB faults due to alignment restrictions
system.cpu.istage2_mmu.stage2_tlb.domain_faults            0                       # Number of TLB faults due to domain restrictions
system.cpu.istage2_mmu.stage2_tlb.flush_entries            0                       # Number of entries that have been flushed from TLB
system.cpu.istage2_mmu.stage2_tlb.flush_tlb            0                       # Number of times complete TLB was flushed
system.cpu.istage2_mmu.stage2_tlb.flush_tlb_asid            0                       # Number of times TLB was flushed by ASID
system.cpu.istage2_mmu.stage2_tlb.flush_tlb_mva            0                       # Number of times TLB was flushed by MVA
system.cpu.istage2_mmu.stage2_tlb.flush_tlb_mva_asid            0                       # Number of times TLB was flushed by MVA & ASID
system.cpu.istage2_mmu.stage2_tlb.hits              0                       # DTB hits
system.cpu.istage2_mmu.stage2_tlb.inst_accesses            0                       # ITB inst accesses
system.cpu.istage2_mmu.stage2_tlb.inst_hits            0                       # ITB inst hits
system.cpu.istage2_mmu.stage2_tlb.inst_misses            0                       # ITB inst misses
system.cpu.istage2_mmu.stage2_tlb.misses            0                       # DTB misses
system.cpu.istage2_mmu.stage2_tlb.perms_faults            0                       # Number of TLB faults due to permissions restrictions
system.cpu.istage2_mmu.stage2_tlb.prefetch_faults            0                       # Number of TLB faults due to prefetch
system.cpu.istage2_mmu.stage2_tlb.read_accesses            0                       # DTB read accesses
system.cpu.istage2_mmu.stage2_tlb.read_hits            0                       # DTB read hits
system.cpu.istage2_mmu.stage2_tlb.read_misses            0                       # DTB read misses
system.cpu.istage2_mmu.stage2_tlb.walker.pwrStateResidencyTicks::UNDEFINED 705673264000                       # Cumulative time (in ticks) in various power states
system.cpu.istage2_mmu.stage2_tlb.walker.walkRequestOrigin_Requested::Data            0                       # Table walker requests started/completed, data/inst
system.cpu.istage2_mmu.stage2_tlb.walker.walkRequestOrigin_Requested::Inst            0                       # Table walker requests started/completed, data/inst
system.cpu.istage2_mmu.stage2_tlb.walker.walkRequestOrigin_Requested::total            0                       # Table walker requests started/completed, data/inst
system.cpu.istage2_mmu.stage2_tlb.walker.walkRequestOrigin_Completed::Data            0                       # Table walker requests started/completed, data/inst
system.cpu.istage2_mmu.stage2_tlb.walker.walkRequestOrigin_Completed::Inst            0                       # Table walker requests started/completed, data/inst
system.cpu.istage2_mmu.stage2_tlb.walker.walkRequestOrigin_Completed::total            0                       # Table walker requests started/completed, data/inst
system.cpu.istage2_mmu.stage2_tlb.walker.walkRequestOrigin::total            0                       # Table walker requests started/completed, data/inst
system.cpu.istage2_mmu.stage2_tlb.walker.walks            0                       # Table walker walks requested
system.cpu.istage2_mmu.stage2_tlb.write_accesses            0                       # DTB write accesses
system.cpu.istage2_mmu.stage2_tlb.write_hits            0                       # DTB write hits
system.cpu.istage2_mmu.stage2_tlb.write_misses            0                       # DTB write misses
system.cpu.itb.accesses                             0                       # DTB accesses
system.cpu.itb.align_faults                         0                       # Number of TLB faults due to alignment restrictions
system.cpu.itb.domain_faults                        0                       # Number of TLB faults due to domain restrictions
system.cpu.itb.flush_entries                        0                       # Number of entries that have been flushed from TLB
system.cpu.itb.flush_tlb                            0                       # Number of times complete TLB was flushed
system.cpu.itb.flush_tlb_asid                       0                       # Number of times TLB was flushed by ASID
system.cpu.itb.flush_tlb_mva                        0                       # Number of times TLB was flushed by MVA
system.cpu.itb.flush_tlb_mva_asid                   0                       # Number of times TLB was flushed by MVA & ASID
system.cpu.itb.hits                                 0                       # DTB hits
system.cpu.itb.inst_accesses                        0                       # ITB inst accesses
system.cpu.itb.inst_hits                            0                       # ITB inst hits
system.cpu.itb.inst_misses                          0                       # ITB inst misses
system.cpu.itb.misses                               0                       # DTB misses
system.cpu.itb.perms_faults                         0                       # Number of TLB faults due to permissions restrictions
system.cpu.itb.prefetch_faults                      0                       # Number of TLB faults due to prefetch
system.cpu.itb.read_accesses                        0                       # DTB read accesses
system.cpu.itb.read_hits                            0                       # DTB read hits
system.cpu.itb.read_misses                          0                       # DTB read misses
system.cpu.itb.walker.pwrStateResidencyTicks::UNDEFINED 705673264000                       # Cumulative time (in ticks) in various power states
system.cpu.itb.walker.walkRequestOrigin_Requested::Data            0                       # Table walker requests started/completed, data/inst
system.cpu.itb.walker.walkRequestOrigin_Requested::Inst            0                       # Table walker requests started/completed, data/inst
system.cpu.itb.walker.walkRequestOrigin_Requested::total            0                       # Table walker requests started/completed, data/inst
system.cpu.itb.walker.walkRequestOrigin_Completed::Data            0                       # Table walker requests started/completed, data/inst
system.cpu.itb.walker.walkRequestOrigin_Completed::Inst            0                       # Table walker requests started/completed, data/inst
system.cpu.itb.walker.walkRequestOrigin_Completed::total            0                       # Table walker requests started/completed, data/inst
system.cpu.itb.walker.walkRequestOrigin::total            0                       # Table walker requests started/completed, data/inst
system.cpu.itb.walker.walks                         0                       # Table walker walks requested
system.cpu.itb.write_accesses                       0                       # DTB write accesses
system.cpu.itb.write_hits                           0                       # DTB write hits
system.cpu.itb.write_misses                         0                       # DTB write misses
system.cpu.numCycles                        705673264                       # number of cpu cycles simulated
system.cpu.numFetchSuspends                         0                       # Number of times Execute suspended instruction fetching
system.cpu.numWorkItemsCompleted                    0                       # number of work items this cpu completed
system.cpu.numWorkItemsStarted                      0                       # number of work items this cpu started
system.cpu.op_class_0::No_OpClass                   0      0.00%      0.00% # Class of committed instruction
system.cpu.op_class_0::IntAlu                97640233     53.01%     53.01% # Class of committed instruction
system.cpu.op_class_0::IntMult                 114699      0.06%     53.08% # Class of committed instruction
system.cpu.op_class_0::IntDiv                       0      0.00%     53.08% # Class of committed instruction
system.cpu.op_class_0::FloatAdd                     0      0.00%     53.08% # Class of committed instruction
system.cpu.op_class_0::FloatCmp                     0      0.00%     53.08% # Class of committed instruction
system.cpu.op_class_0::FloatCvt                     0      0.00%     53.08% # Class of committed instruction
system.cpu.op_class_0::FloatMult                    0      0.00%     53.08% # Class of committed instruction
system.cpu.op_class_0::FloatMultAcc                 0      0.00%     53.08% # Class of committed instruction
system.cpu.op_class_0::FloatDiv                     0      0.00%     53.08% # Class of committed instruction
system.cpu.op_class_0::FloatMisc                    0      0.00%     53.08% # Class of committed instruction
system.cpu.op_class_0::FloatSqrt                    0      0.00%     53.08% # Class of committed instruction
system.cpu.op_class_0::SimdAdd                      8      0.00%     53.08% # Class of committed instruction
system.cpu.op_class_0::SimdAddAcc                   0      0.00%     53.08% # Class of committed instruction
system.cpu.op_class_0::SimdAlu                      8      0.00%     53.08% # Class of committed instruction
system.cpu.op_class_0::SimdCmp                      6      0.00%     53.08% # Class of committed instruction
system.cpu.op_class_0::SimdCvt                      0      0.00%     53.08% # Class of committed instruction
system.cpu.op_class_0::SimdMisc                     1      0.00%     53.08% # Class of committed instruction
system.cpu.op_class_0::SimdMult                     0      0.00%     53.08% # Class of committed instruction
system.cpu.op_class_0::SimdMultAcc                  0      0.00%     53.08% # Class of committed instruction
system.cpu.op_class_0::SimdShift                    0      0.00%     53.08% # Class of committed instruction
system.cpu.op_class_0::SimdShiftAcc                 0      0.00%     53.08% # Class of committed instruction
system.cpu.op_class_0::SimdDiv                      0      0.00%     53.08% # Class of committed instruction
system.cpu.op_class_0::SimdSqrt                     0      0.00%     53.08% # Class of committed instruction
system.cpu.op_class_0::SimdFloatAdd                 0      0.00%     53.08% # Class of committed instruction
system.cpu.op_class_0::SimdFloatAlu                 0      0.00%     53.08% # Class of committed instruction
system.cpu.op_class_0::SimdFloatCmp                 0      0.00%     53.08% # Class of committed instruction
system.cpu.op_class_0::SimdFloatCvt                 0      0.00%     53.08% # Class of committed instruction
system.cpu.op_class_0::SimdFloatDiv                 0      0.00%     53.08% # Class of committed instruction
system.cpu.op_class_0::SimdFloatMisc                9      0.00%     53.08% # Class of committed instruction
system.cpu.op_class_0::SimdFloatMult                0      0.00%     53.08% # Class of committed instruction
system.cpu.op_class_0::SimdFloatMultAcc             0      0.00%     53.08% # Class of committed instruction
system.cpu.op_class_0::SimdFloatSqrt                0      0.00%     53.08% # Class of committed instruction
system.cpu.op_class_0::SimdReduceAdd                0      0.00%     53.08% # Class of committed instruction
system.cpu.op_class_0::SimdReduceAlu                0      0.00%     53.08% # Class of committed instruction
system.cpu.op_class_0::SimdReduceCmp                0      0.00%     53.08% # Class of committed instruction
system.cpu.op_class_0::SimdFloatReduceAdd            0      0.00%     53.08% # Class of committed instruction
system.cpu.op_class_0::SimdFloatReduceCmp            0      0.00%     53.08% # Class of committed instruction
system.cpu.op_class_0::SimdAes                      0      0.00%     53.08% # Class of committed instruction
system.cpu.op_class_0::SimdAesMix                   0      0.00%     53.08% # Class of committed instruction
system.cpu.op_class_0::SimdSha1Hash                 0      0.00%     53.08% # Class of committed instruction
system.cpu.op_class_0::SimdSha1Hash2                0      0.00%     53.08% # Class of committed instruction
system.cpu.op_class_0::SimdSha256Hash               0      0.00%     53.08% # Class of committed instruction
system.cpu.op_class_0::SimdSha256Hash2              0      0.00%     53.08% # Class of committed instruction
system.cpu.op_class_0::SimdShaSigma2                0      0.00%     53.08% # Class of committed instruction
system.cpu.op_class_0::SimdShaSigma3                0      0.00%     53.08% # Class of committed instruction
system.cpu.op_class_0::SimdPredAlu                  0      0.00%     53.08% # Class of committed instruction
system.cpu.op_class_0::MemRead                2082603      1.13%     54.21% # Class of committed instruction
system.cpu.op_class_0::MemWrite              84340002     45.79%    100.00% # Class of committed instruction
system.cpu.op_class_0::FloatMemRead                 0      0.00%    100.00% # Class of committed instruction
system.cpu.op_class_0::FloatMemWrite                0      0.00%    100.00% # Class of committed instruction
system.cpu.op_class_0::IprAccess                    0      0.00%    100.00% # Class of committed instruction
system.cpu.op_class_0::InstPrefetch                 0      0.00%    100.00% # Class of committed instruction
system.cpu.op_class_0::total                184177569                       # Class of committed instruction
system.cpu.pwrStateResidencyTicks::ON    705673264000                       # Cumulative time (in ticks) in various power states
system.cpu.tickCycles                       252923415                       # Number of cycles that the object actually ticked
system.cpu.workload.numSyscalls                    18                       # Number of system calls
system.cpu_clk_domain.clock                      1000                       # Clock period in ticks
system.cpu_voltage_domain.voltage                   1                       # Voltage in Volts
system.l2.ReadCleanReq_accesses::.cpu.inst          690                       # number of ReadCleanReq accesses(hits+misses)
system.l2.ReadCleanReq_accesses::total            690                       # number of ReadCleanReq accesses(hits+misses)
system.l2.ReadCleanReq_avg_miss_latency::.cpu.inst 101008.561644                       # average ReadCleanReq miss latency
system.l2.ReadCleanReq_avg_miss_latency::total 101008.561644                       # average ReadCleanReq miss latency
system.l2.ReadCleanReq_avg_mshr_miss_latency::.cpu.inst 81053.356282                       # average ReadCleanReq mshr miss latency
system.l2.ReadCleanReq_avg_mshr_miss_latency::total 81053.356282                       # average ReadCleanReq mshr miss latency
system.l2.ReadCleanReq_hits::.cpu.inst            106                       # number of ReadCleanReq hits
system.l2.ReadCleanReq_hits::total                106                       # number of ReadCleanReq hits
system.l2.ReadCleanReq_miss_latency::.cpu.inst     58989000                       # number of ReadCleanReq miss cycles
system.l2.ReadCleanReq_miss_latency::total     58989000                       # number of ReadCleanReq miss cycles
system.l2.ReadCleanReq_miss_rate::.cpu.inst     0.846377                       # miss rate for ReadCleanReq accesses
system.l2.ReadCleanReq_miss_rate::total      0.846377                       # miss rate for ReadCleanReq accesses
system.l2.ReadCleanReq_misses::.cpu.inst          584                       # number of ReadCleanReq misses
system.l2.ReadCleanReq_misses::total              584                       # number of ReadCleanReq misses
system.l2.ReadCleanReq_mshr_hits::.cpu.inst            3                       # number of ReadCleanReq MSHR hits
system.l2.ReadCleanReq_mshr_hits::total             3                       # number of ReadCleanReq MSHR hits
system.l2.ReadCleanReq_mshr_miss_latency::.cpu.inst     47092000                       # number of ReadCleanReq MSHR miss cycles
system.l2.ReadCleanReq_mshr_miss_latency::total     47092000                       # number of ReadCleanReq MSHR miss cycles
system.l2.ReadCleanReq_mshr_miss_rate::.cpu.inst     0.842029                       # mshr miss rate for ReadCleanReq accesses
system.l2.ReadCleanReq_mshr_miss_rate::total     0.842029                       # mshr miss rate for ReadCleanReq accesses
system.l2.ReadCleanReq_mshr_misses::.cpu.inst          581                       # number of ReadCleanReq MSHR misses
system.l2.ReadCleanReq_mshr_misses::total          581                       # number of ReadCleanReq MSHR misses
system.l2.ReadExReq_accesses::.cpu.data       5264513                       # number of ReadExReq accesses(hits+misses)
system.l2.ReadExReq_accesses::total           5264513                       # number of ReadExReq accesses(hits+misses)
system.l2.ReadExReq_avg_miss_latency::.cpu.data 99702.180076                       # average ReadExReq miss latency
system.l2.ReadExReq_avg_miss_latency::total 99702.180076                       # average ReadExReq miss latency
system.l2.ReadExReq_avg_mshr_miss_latency::.cpu.data 79702.180076                       # average ReadExReq mshr miss latency
system.l2.ReadExReq_avg_mshr_miss_latency::total 79702.180076                       # average ReadExReq mshr miss latency
system.l2.ReadExReq_hits::.cpu.data              1440                       # number of ReadExReq hits
system.l2.ReadExReq_hits::total                  1440                       # number of ReadExReq hits
system.l2.ReadExReq_miss_latency::.cpu.data 524739852000                       # number of ReadExReq miss cycles
system.l2.ReadExReq_miss_latency::total  524739852000                       # number of ReadExReq miss cycles
system.l2.ReadExReq_miss_rate::.cpu.data     0.999726                       # miss rate for ReadExReq accesses
system.l2.ReadExReq_miss_rate::total         0.999726                       # miss rate for ReadExReq accesses
system.l2.ReadExReq_misses::.cpu.data         5263073                       # number of ReadExReq misses
system.l2.ReadExReq_misses::total             5263073                       # number of ReadExReq misses
system.l2.ReadExReq_mshr_miss_latency::.cpu.data 419478392000                       # number of ReadExReq MSHR miss cycles
system.l2.ReadExReq_mshr_miss_latency::total 419478392000                       # number of ReadExReq MSHR miss cycles
system.l2.ReadExReq_mshr_miss_rate::.cpu.data     0.999726                       # mshr miss rate for ReadExReq accesses
system.l2.ReadExReq_mshr_miss_rate::total     0.999726                       # mshr miss rate for ReadExReq accesses
system.l2.ReadExReq_mshr_misses::.cpu.data      5263073                       # number of ReadExReq MSHR misses
system.l2.ReadExReq_mshr_misses::total        5263073                       # number of ReadExReq MSHR misses
system.l2.ReadSharedReq_accesses::.cpu.data        63402                       # number of ReadSharedReq accesses(hits+misses)
system.l2.ReadSharedReq_accesses::total         63402                       # number of ReadSharedReq accesses(hits+misses)
system.l2.ReadSharedReq_avg_miss_latency::.cpu.data 103678.160920                       # average ReadSharedReq miss latency
system.l2.ReadSharedReq_avg_miss_latency::total 103678.160920                       # average ReadSharedReq miss latency
system.l2.ReadSharedReq_avg_mshr_miss_latency::.cpu.data 83804.687500                       # average ReadSharedReq mshr miss latency
system.l2.ReadSharedReq_avg_mshr_miss_latency::total 83804.687500                       # average ReadSharedReq mshr miss latency
system.l2.ReadSharedReq_hits::.cpu.data         63141                       # number of ReadSharedReq hits
system.l2.ReadSharedReq_hits::total             63141                       # number of ReadSharedReq hits
system.l2.ReadSharedReq_miss_latency::.cpu.data     27060000                       # number of ReadSharedReq miss cycles
system.l2.ReadSharedReq_miss_latency::total     27060000                       # number of ReadSharedReq miss cycles
system.l2.ReadSharedReq_miss_rate::.cpu.data     0.004117                       # miss rate for ReadSharedReq accesses
system.l2.ReadSharedReq_miss_rate::total     0.004117                       # miss rate for ReadSharedReq accesses
system.l2.ReadSharedReq_misses::.cpu.data          261                       # number of ReadSharedReq misses
system.l2.ReadSharedReq_misses::total             261                       # number of ReadSharedReq misses
system.l2.ReadSharedReq_mshr_hits::.cpu.data            5                       # number of ReadSharedReq MSHR hits
system.l2.ReadSharedReq_mshr_hits::total            5                       # number of ReadSharedReq MSHR hits
system.l2.ReadSharedReq_mshr_miss_latency::.cpu.data     21454000                       # number of ReadSharedReq MSHR miss cycles
system.l2.ReadSharedReq_mshr_miss_latency::total     21454000                       # number of ReadSharedReq MSHR miss cycles
system.l2.ReadSharedReq_mshr_miss_rate::.cpu.data     0.004038                       # mshr miss rate for ReadSharedReq accesses
system.l2.ReadSharedReq_mshr_miss_rate::total     0.004038                       # mshr miss rate for ReadSharedReq accesses
system.l2.ReadSharedReq_mshr_misses::.cpu.data          256                       # number of ReadSharedReq MSHR misses
system.l2.ReadSharedReq_mshr_misses::total          256                       # number of ReadSharedReq MSHR misses
system.l2.WritebackClean_accesses::.writebacks          319                       # number of WritebackClean accesses(hits+misses)
system.l2.WritebackClean_accesses::total          319                       # number of WritebackClean accesses(hits+misses)
system.l2.WritebackClean_hits::.writebacks          319                       # number of WritebackClean hits
system.l2.WritebackClean_hits::total              319                       # number of WritebackClean hits
system.l2.WritebackDirty_accesses::.writebacks      5263816                       # number of WritebackDirty accesses(hits+misses)
system.l2.WritebackDirty_accesses::total      5263816                       # number of WritebackDirty accesses(hits+misses)
system.l2.WritebackDirty_hits::.writebacks      5263816                       # number of WritebackDirty hits
system.l2.WritebackDirty_hits::total          5263816                       # number of WritebackDirty hits
system.l2.avg_blocked_cycles::no_mshrs            nan                       # average number of cycles each access was blocked
system.l2.avg_blocked_cycles::no_targets          nan                       # average number of cycles each access was blocked
system.l2.blocked::no_mshrs                         0                       # number of cycles access was blocked
system.l2.blocked::no_targets                       0                       # number of cycles access was blocked
system.l2.blocked_cycles::no_mshrs                  0                       # number of cycles access was blocked
system.l2.blocked_cycles::no_targets                0                       # number of cycles access was blocked
system.l2.demand_accesses::.cpu.inst              690                       # number of demand (read+write) accesses
system.l2.demand_accesses::.cpu.data          5327915                       # number of demand (read+write) accesses
system.l2.demand_accesses::total              5328605                       # number of demand (read+write) accesses
system.l2.demand_avg_miss_latency::.cpu.inst 101008.561644                       # average overall miss latency
system.l2.demand_avg_miss_latency::.cpu.data 99702.377238                       # average overall miss latency
system.l2.demand_avg_miss_latency::total 99702.522152                       # average overall miss latency
system.l2.demand_avg_mshr_miss_latency::.cpu.inst 81053.356282                       # average overall mshr miss latency
system.l2.demand_avg_mshr_miss_latency::.cpu.data 79702.379616                       # average overall mshr miss latency
system.l2.demand_avg_mshr_miss_latency::total 79702.528729                       # average overall mshr miss latency
system.l2.demand_hits::.cpu.inst                  106                       # number of demand (read+write) hits
system.l2.demand_hits::.cpu.data                64581                       # number of demand (read+write) hits
system.l2.demand_hits::total                    64687                       # number of demand (read+write) hits
system.l2.demand_miss_latency::.cpu.inst     58989000                       # number of demand (read+write) miss cycles
system.l2.demand_miss_latency::.cpu.data 524766912000                       # number of demand (read+write) miss cycles
system.l2.demand_miss_latency::total     524825901000                       # number of demand (read+write) miss cycles
system.l2.demand_miss_rate::.cpu.inst        0.846377                       # miss rate for demand accesses
system.l2.demand_miss_rate::.cpu.data        0.987879                       # miss rate for demand accesses
system.l2.demand_miss_rate::total            0.987860                       # miss rate for demand accesses
system.l2.demand_misses::.cpu.inst                584                       # number of demand (read+write) misses
system.l2.demand_misses::.cpu.data            5263334                       # number of demand (read+write) misses
system.l2.demand_misses::total                5263918                       # number of demand (read+write) misses
system.l2.demand_mshr_hits::.cpu.inst               3                       # number of demand (read+write) MSHR hits
system.l2.demand_mshr_hits::.cpu.data               5                       # number of demand (read+write) MSHR hits
system.l2.demand_mshr_hits::total                   8                       # number of demand (read+write) MSHR hits
system.l2.demand_mshr_miss_latency::.cpu.inst     47092000                       # number of demand (read+write) MSHR miss cycles
system.l2.demand_mshr_miss_latency::.cpu.data 419499846000                       # number of demand (read+write) MSHR miss cycles
system.l2.demand_mshr_miss_latency::total 419546938000                       # number of demand (read+write) MSHR miss cycles
system.l2.demand_mshr_miss_rate::.cpu.inst     0.842029                       # mshr miss rate for demand accesses
system.l2.demand_mshr_miss_rate::.cpu.data     0.987878                       # mshr miss rate for demand accesses
system.l2.demand_mshr_miss_rate::total       0.987859                       # mshr miss rate for demand accesses
system.l2.demand_mshr_misses::.cpu.inst           581                       # number of demand (read+write) MSHR misses
system.l2.demand_mshr_misses::.cpu.data       5263329                       # number of demand (read+write) MSHR misses
system.l2.demand_mshr_misses::total           5263910                       # number of demand (read+write) MSHR misses
system.l2.overall_accesses::.cpu.inst             690                       # number of overall (read+write) accesses
system.l2.overall_accesses::.cpu.data         5327915                       # number of overall (read+write) accesses
system.l2.overall_accesses::total             5328605                       # number of overall (read+write) accesses
system.l2.overall_avg_miss_latency::.cpu.inst 101008.561644                       # average overall miss latency
system.l2.overall_avg_miss_latency::.cpu.data 99702.377238                       # average overall miss latency
system.l2.overall_avg_miss_latency::total 99702.522152                       # average overall miss latency
system.l2.overall_avg_mshr_miss_latency::.cpu.inst 81053.356282                       # average overall mshr miss latency
system.l2.overall_avg_mshr_miss_latency::.cpu.data 79702.379616                       # average overall mshr miss latency
system.l2.overall_avg_mshr_miss_latency::total 79702.528729                       # average overall mshr miss latency
system.l2.overall_hits::.cpu.inst                 106                       # number of overall hits
system.l2.overall_hits::.cpu.data               64581                       # number of overall hits
system.l2.overall_hits::total                   64687                       # number of overall hits
system.l2.overall_miss_latency::.cpu.inst     58989000                       # number of overall miss cycles
system.l2.overall_miss_latency::.cpu.data 524766912000                       # number of overall miss cycles
system.l2.overall_miss_latency::total    524825901000                       # number of overall miss cycles
system.l2.overall_miss_rate::.cpu.inst       0.846377                       # miss rate for overall accesses
system.l2.overall_miss_rate::.cpu.data       0.987879                       # miss rate for overall accesses
system.l2.overall_miss_rate::total           0.987860                       # miss rate for overall accesses
system.l2.overall_misses::.cpu.inst               584                       # number of overall misses
system.l2.overall_misses::.cpu.data           5263334                       # number of overall misses
system.l2.overall_misses::total               5263918                       # number of overall misses
system.l2.overall_mshr_hits::.cpu.inst              3                       # number of overall MSHR hits
system.l2.overall_mshr_hits::.cpu.data              5                       # number of overall MSHR hits
system.l2.overall_mshr_hits::total                  8                       # number of overall MSHR hits
system.l2.overall_mshr_miss_latency::.cpu.inst     47092000                       # number of overall MSHR miss cycles
system.l2.overall_mshr_miss_latency::.cpu.data 419499846000                       # number of overall MSHR miss cycles
system.l2.overall_mshr_miss_latency::total 419546938000                       # number of overall MSHR miss cycles
system.l2.overall_mshr_miss_rate::.cpu.inst     0.842029                       # mshr miss rate for overall accesses
system.l2.overall_mshr_miss_rate::.cpu.data     0.987878                       # mshr miss rate for overall accesses
system.l2.overall_mshr_miss_rate::total      0.987859                       # mshr miss rate for overall accesses
system.l2.overall_mshr_misses::.cpu.inst          581                       # number of overall MSHR misses
system.l2.overall_mshr_misses::.cpu.data      5263329                       # number of overall MSHR misses
system.l2.overall_mshr_misses::total          5263910                       # number of overall MSHR misses
system.l2.pwrStateResidencyTicks::UNDEFINED 705673264000                       # Cumulative time (in ticks) in various power states
system.l2.replacements                        5231247                       # number of replacements
system.l2.tags.age_task_id_blocks_1024::0           76                       # Occupied blocks per task id
system.l2.tags.age_task_id_blocks_1024::1          678                       # Occupied blocks per task id
system.l2.tags.age_task_id_blocks_1024::2         6781                       # Occupied blocks per task id
system.l2.tags.age_task_id_blocks_1024::3        25233                       # Occupied blocks per task id
system.l2.tags.avg_refs                      2.018368                       # Average number of references to valid blocks.
system.l2.tags.data_accesses                 47762923                       # Number of data accesses
system.l2.tags.occ_blocks::.writebacks       0.573829                       # Average occupied blocks per requestor
system.l2.tags.occ_blocks::.cpu.inst         6.629279                       # Average occupied blocks per requestor
system.l2.tags.occ_blocks::.cpu.data     32350.706815                       # Average occupied blocks per requestor
system.l2.tags.occ_percent::.writebacks      0.000018                       # Average percentage of cache occupancy
system.l2.tags.occ_percent::.cpu.inst        0.000202                       # Average percentage of cache occupancy
system.l2.tags.occ_percent::.cpu.data        0.987265                       # Average percentage of cache occupancy
system.l2.tags.occ_percent::total            0.987485                       # Average percentage of cache occupancy
system.l2.tags.occ_task_id_blocks::1024         32768                       # Occupied blocks per task id
system.l2.tags.occ_task_id_percent::1024            1                       # Percentage of cache occupancy per task id
system.l2.tags.pwrStateResidencyTicks::UNDEFINED 705673264000                       # Cumulative time (in ticks) in various power states
system.l2.tags.sampled_refs                   5264015                       # Sample count of references to valid blocks.
system.l2.tags.tag_accesses                  47762923                       # Number of tag accesses
system.l2.tags.tagsinuse                 32357.909923                       # Cycle average of tags in use
system.l2.tags.total_refs                    10624719                       # Total number of references to valid blocks.
system.l2.tags.warmup_cycle                     87000                       # Cycle when the warmup percentage was hit.
system.l2.writebacks::.writebacks             5230333                       # number of writebacks
system.l2.writebacks::total                   5230333                       # number of writebacks
system.mem_ctrls.avgBusLat                    5000.00                       # Average bus latency per DRAM burst
system.mem_ctrls.avgGap                      67243.84                       # Average gap between requests
system.mem_ctrls.avgMemAccLat                28440.82                       # Average memory access latency per DRAM burst
system.mem_ctrls.avgPriority_.writebacks::samples   5230333.00                       # Average QoS priority value for accepted requests
system.mem_ctrls.avgPriority_.cpu.inst::samples       581.00                       # Average QoS priority value for accepted requests
system.mem_ctrls.avgPriority_.cpu.data::samples   5263329.00                       # Average QoS priority value for accepted requests
system.mem_ctrls.avgQLat                      9690.82                       # Average queueing delay per DRAM burst
system.mem_ctrls.avgRdBW                       477.40                       # Average DRAM read bandwidth in MiByte/s
system.mem_ctrls.avgRdBWSys                    477.40                       # Average system read bandwidth in MiByte/s
system.mem_ctrls.avgRdQLen                       1.00                       # Average read queue length when enqueuing
system.mem_ctrls.avgWrBW                       474.36                       # Average achieved write bandwidth in MiByte/s
system.mem_ctrls.avgWrBWSys                    474.36                       # Average system write bandwidth in MiByte/s
system.mem_ctrls.avgWrQLen                      25.42                       # Average write queue length when enqueuing
system.mem_ctrls.busUtil                         7.44                       # Data bus utilization in percentage
system.mem_ctrls.busUtilRead                     3.73                       # Data bus utilization in percentage for reads
system.mem_ctrls.busUtilWrite                    3.71                       # Data bus utilization in percentage for writes
system.mem_ctrls.bw_inst_read::.cpu.inst        52693                       # Instruction read bandwidth from this memory (bytes/s)
system.mem_ctrls.bw_inst_read::total            52693                       # Instruction read bandwidth from this memory (bytes/s)
system.mem_ctrls.bw_read::.cpu.inst             52693                       # Total read bandwidth from this memory (bytes/s)
system.mem_ctrls.bw_read::.cpu.data         477349891                       # Total read bandwidth from this memory (bytes/s)
system.mem_ctrls.bw_read::total             477402584                       # Total read bandwidth from this memory (bytes/s)
system.mem_ctrls.bw_total::.writebacks      474357368                       # Total bandwidth to/from this memory (bytes/s)
system.mem_ctrls.bw_total::.cpu.inst            52693                       # Total bandwidth to/from this memory (bytes/s)
system.mem_ctrls.bw_total::.cpu.data        477349891                       # Total bandwidth to/from this memory (bytes/s)
system.mem_ctrls.bw_total::total            951759952                       # Total bandwidth to/from this memory (bytes/s)
system.mem_ctrls.bw_write::.writebacks      474357368                       # Write bandwidth from this memory (bytes/s)
system.mem_ctrls.bw_write::total            474357368                       # Write bandwidth from this memory (bytes/s)
system.mem_ctrls.bytesPerActivate::samples       811828                       # Bytes accessed per row activation
system.mem_ctrls.bytesPerActivate::mean    827.304937                       # Bytes accessed per row activation
system.mem_ctrls.bytesPerActivate::gmean   703.447611                       # Bytes accessed per row activation
system.mem_ctrls.bytesPerActivate::stdev   313.026064                       # Bytes accessed per row activation
system.mem_ctrls.bytesPerActivate::0-127        39587      4.88%      4.88% # Bytes accessed per row activation
system.mem_ctrls.bytesPerActivate::128-255        25283      3.11%      7.99% # Bytes accessed per row activation
system.mem_ctrls.bytesPerActivate::256-383        40520      4.99%     12.98% # Bytes accessed per row activation
system.mem_ctrls.bytesPerActivate::384-511        50021      6.16%     19.14% # Bytes accessed per row activation
system.mem_ctrls.bytesPerActivate::512-639        18216      2.24%     21.39% # Bytes accessed per row activation
system.mem_ctrls.bytesPerActivate::640-767        43280      5.33%     26.72% # Bytes accessed per row activation
system.mem_ctrls.bytesPerActivate::768-895        38997      4.80%     31.52% # Bytes accessed per row activation
system.mem_ctrls.bytesPerActivate::896-1023        49915      6.15%     37.67% # Bytes accessed per row activation
system.mem_ctrls.bytesPerActivate::1024-1151       506009     62.33%    100.00% # Bytes accessed per row activation
system.mem_ctrls.bytesPerActivate::total       811828                       # Bytes accessed per row activation
system.mem_ctrls.bytesReadDRAM              336890240                       # Total number of bytes read from DRAM
system.mem_ctrls.bytesReadSys               336890240                       # Total read bytes from the system interface side
system.mem_ctrls.bytesReadWrQ                       0                       # Total number of bytes read from write queue
system.mem_ctrls.bytesWritten               334739648                       # Total number of bytes written to DRAM
system.mem_ctrls.bytesWrittenSys            334741312                       # Total written bytes from the system interface side
system.mem_ctrls.bytes_inst_read::.cpu.inst        37184                       # Number of instructions bytes read from this memory
system.mem_ctrls.bytes_inst_read::total         37184                       # Number of instructions bytes read from this memory
system.mem_ctrls.bytes_read::.cpu.inst          37184                       # Number of bytes read from this memory
system.mem_ctrls.bytes_read::.cpu.data      336853056                       # Number of bytes read from this memory
system.mem_ctrls.bytes_read::total          336890240                       # Number of bytes read from this memory
system.mem_ctrls.bytes_written::.writebacks    334741312                       # Number of bytes written to this memory
system.mem_ctrls.bytes_written::total       334741312                       # Number of bytes written to this memory
[...]
system.mem_ctrls.wrQLenPdf::21                 326887                       # What write queue length does an incoming req see
system.mem_ctrls.wrQLenPdf::22                 326883                       # What write queue length does an incoming req see
system.mem_ctrls.wrQLenPdf::23                 326935                       # What write queue length does an incoming req see
system.mem_ctrls.wrQLenPdf::24                 326883                       # What write queue length does an incoming req see
system.mem_ctrls.wrQLenPdf::25                 326882                       # What write queue length does an incoming req see
system.mem_ctrls.wrQLenPdf::26                 326884                       # What write queue length does an incoming req see
system.mem_ctrls.wrQLenPdf::27                 326882                       # What write queue length does an incoming req see
system.mem_ctrls.wrQLenPdf::28                 326882                       # What write queue length does an incoming req see
system.mem_ctrls.wrQLenPdf::29                 326883                       # What write queue length does an incoming req see
system.mem_ctrls.wrQLenPdf::30                 326881                       # What write queue length does an incoming req see
system.mem_ctrls.wrQLenPdf::31                 326881                       # What write queue length does an incoming req see
system.mem_ctrls.wrQLenPdf::32                 326882                       # What write queue length does an incoming req see
system.mem_ctrls.wrQLenPdf::33                      0                       # What write queue length does an incoming req see
system.mem_ctrls.wrQLenPdf::34                      0                       # What write queue length does an incoming req see
system.mem_ctrls.wrQLenPdf::35                      0                       # What write queue length does an incoming req see
system.mem_ctrls.wrQLenPdf::36                      0                       # What write queue length does an incoming req see
system.mem_ctrls.wrQLenPdf::37                      0                       # What write queue length does an incoming req see
system.mem_ctrls.wrQLenPdf::38                      0                       # What write queue length does an incoming req see
system.mem_ctrls.wrQLenPdf::39                      0                       # What write queue length does an incoming req see
system.mem_ctrls.wrQLenPdf::40                      0                       # What write queue length does an incoming req see
system.mem_ctrls.wrQLenPdf::41                      0                       # What write queue length does an incoming req see
system.mem_ctrls.wrQLenPdf::42                      0                       # What write queue length does an incoming req see
system.mem_ctrls.wrQLenPdf::43                      0                       # What write queue length does an incoming req see
system.mem_ctrls.wrQLenPdf::44                      0                       # What write queue length does an incoming req see
system.mem_ctrls.wrQLenPdf::45                      0                       # What write queue length does an incoming req see
system.mem_ctrls.wrQLenPdf::46                      0                       # What write queue length does an incoming req see
system.mem_ctrls.wrQLenPdf::47                      0                       # What write queue length does an incoming req see
system.mem_ctrls.wrQLenPdf::48                      0                       # What write queue length does an incoming req see
system.mem_ctrls.wrQLenPdf::49                      0                       # What write queue length does an incoming req see
system.mem_ctrls.wrQLenPdf::50                      0                       # What write queue length does an incoming req see
system.mem_ctrls.wrQLenPdf::51                      0                       # What write queue length does an incoming req see
system.mem_ctrls.wrQLenPdf::52                      0                       # What write queue length does an incoming req see
system.mem_ctrls.wrQLenPdf::53                      0                       # What write queue length does an incoming req see
system.mem_ctrls.wrQLenPdf::54                      0                       # What write queue length does an incoming req see
system.mem_ctrls.wrQLenPdf::55                      0                       # What write queue length does an incoming req see
system.mem_ctrls.wrQLenPdf::56                      0                       # What write queue length does an incoming req see
system.mem_ctrls.wrQLenPdf::57                      0                       # What write queue length does an incoming req see
system.mem_ctrls.wrQLenPdf::58                      0                       # What write queue length does an incoming req see
system.mem_ctrls.wrQLenPdf::59                      0                       # What write queue length does an incoming req see
system.mem_ctrls.wrQLenPdf::60                      0                       # What write queue length does an incoming req see
system.mem_ctrls.wrQLenPdf::61                      0                       # What write queue length does an incoming req see
system.mem_ctrls.wrQLenPdf::62                      0                       # What write queue length does an incoming req see
system.mem_ctrls.wrQLenPdf::63                      0                       # What write queue length does an incoming req see
system.mem_ctrls.writeBursts                  5230333                       # Number of DRAM write bursts, including those merged in the write queue
system.mem_ctrls.writePktSize::0                    0                       # Write request sizes (log2)
system.mem_ctrls.writePktSize::1                    0                       # Write request sizes (log2)
system.mem_ctrls.writePktSize::2                    0                       # Write request sizes (log2)
system.mem_ctrls.writePktSize::3                    0                       # Write request sizes (log2)
system.mem_ctrls.writePktSize::4                    0                       # Write request sizes (log2)
system.mem_ctrls.writePktSize::5                    0                       # Write request sizes (log2)
system.mem_ctrls.writePktSize::6              5230333                       # Write request sizes (log2)
system.mem_ctrls.writeReqs                    5230333                       # Number of write requests accepted
system.mem_ctrls.writeRowHitRate                93.09                       # Row buffer hit rate for writes
system.mem_ctrls.writeRowHits                 4869105                       # Number of row buffer hits during writes
system.mem_ctrls_0.actBackEnergy         165406042230                       # Energy for active background per rank (pJ)
system.mem_ctrls_0.actEnergy               2899325520                       # Energy for activate commands per rank (pJ)
system.mem_ctrls_0.actPowerDownEnergy               0                       # Energy for active power-down per rank (pJ)
system.mem_ctrls_0.averagePower            552.221961                       # Core power per rank (mW)
system.mem_ctrls_0.memoryStateTime::IDLE 337821582750                       # Time in different power states
system.mem_ctrls_0.memoryStateTime::REF   23563800000                       # Time in different power states
system.mem_ctrls_0.memoryStateTime::SREF            0                       # Time in different power states
system.mem_ctrls_0.memoryStateTime::PRE_PDN            0                       # Time in different power states
system.mem_ctrls_0.memoryStateTime::ACT  344287881250                       # Time in different power states
system.mem_ctrls_0.memoryStateTime::ACT_PDN            0                       # Time in different power states
system.mem_ctrls_0.preBackEnergy         131689235040                       # Energy for precharge background per rank (pJ)
system.mem_ctrls_0.preEnergy               1541024265                       # Energy for precharge commands per rank (pJ)
system.mem_ctrls_0.prePowerDownEnergy               0                       # Energy for precharge power-down per rank (pJ)
system.mem_ctrls_0.readEnergy             18795007560                       # Energy for read commands per rank (pJ)
system.mem_ctrls_0.refreshEnergy         55704823200.000008                       # Energy for refresh commands per rank (pJ)
system.mem_ctrls_0.selfRefreshEnergy                0                       # Energy for self refresh per rank (pJ)
system.mem_ctrls_0.totalEnergy           389688273855                       # Total energy per rank (pJ)
system.mem_ctrls_0.totalIdleTime                    0                       # Total Idle time Per DRAM Rank
system.mem_ctrls_0.writeEnergy            13652816040                       # Energy for write commands per rank (pJ)
system.mem_ctrls_1.actBackEnergy         165246479850                       # Energy for active background per rank (pJ)
system.mem_ctrls_1.actEnergy               2897133540                       # Energy for activate commands per rank (pJ)
system.mem_ctrls_1.actPowerDownEnergy               0                       # Energy for active power-down per rank (pJ)
system.mem_ctrls_1.averagePower            552.168573                       # Core power per rank (mW)
system.mem_ctrls_1.memoryStateTime::IDLE 338172655000                       # Time in different power states
system.mem_ctrls_1.memoryStateTime::REF   23563800000                       # Time in different power states
system.mem_ctrls_1.memoryStateTime::SREF            0                       # Time in different power states
system.mem_ctrls_1.memoryStateTime::PRE_PDN            0                       # Time in different power states
system.mem_ctrls_1.memoryStateTime::ACT  343936809000                       # Time in different power states
system.mem_ctrls_1.memoryStateTime::ACT_PDN            0                       # Time in different power states
system.mem_ctrls_1.preBackEnergy         131823603360                       # Energy for precharge background per rank (pJ)
system.mem_ctrls_1.preEnergy               1539862995                       # Energy for precharge commands per rank (pJ)
system.mem_ctrls_1.prePowerDownEnergy               0                       # Energy for precharge power-down per rank (pJ)
system.mem_ctrls_1.readEnergy             18789309840                       # Energy for read commands per rank (pJ)
system.mem_ctrls_1.refreshEnergy         55704823200.000008                       # Energy for refresh commands per rank (pJ)
system.mem_ctrls_1.selfRefreshEnergy                0                       # Energy for self refresh per rank (pJ)
system.mem_ctrls_1.totalEnergy           389650599285                       # Total energy per rank (pJ)
system.mem_ctrls_1.totalIdleTime                    0                       # Total Idle time Per DRAM Rank
system.mem_ctrls_1.writeEnergy            13649386500                       # Energy for write commands per rank (pJ)
system.membus.pkt_count_system.l2.mem_side::system.mem_ctrls.port     15758590                       # Packet count per connected master and slave (bytes)
system.membus.pkt_count::total               15758590                       # Packet count per connected master and slave (bytes)
system.membus.pkt_size_system.l2.mem_side::system.mem_ctrls.port    671631552                       # Cumulative packet size per connected master and slave (bytes)
system.membus.pkt_size::total               671631552                       # Cumulative packet size per connected master and slave (bytes)
system.membus.pwrStateResidencyTicks::UNDEFINED 705673264000                       # Cumulative time (in ticks) in various power states
system.membus.reqLayer0.occupancy         31416012999                       # Layer occupancy (ticks)
system.membus.reqLayer0.utilization               4.5                       # Layer utilization (%)
system.membus.respLayer1.occupancy        27697118750                       # Layer occupancy (ticks)
system.membus.respLayer1.utilization              3.9                       # Layer utilization (%)
system.membus.snoopTraffic                          0                       # Total snoop traffic (bytes)
system.membus.snoop_fanout::samples           5263910                       # Request fanout histogram
system.membus.snoop_fanout::mean                    0                       # Request fanout histogram
system.membus.snoop_fanout::stdev                   0                       # Request fanout histogram
system.membus.snoop_fanout::underflows              0      0.00%      0.00% # Request fanout histogram
system.membus.snoop_fanout::0                 5263910    100.00%    100.00% # Request fanout histogram
system.membus.snoop_fanout::1                       0      0.00%    100.00% # Request fanout histogram
system.membus.snoop_fanout::overflows               0      0.00%    100.00% # Request fanout histogram
system.membus.snoop_fanout::min_value               0                       # Request fanout histogram
system.membus.snoop_fanout::max_value               0                       # Request fanout histogram
system.membus.snoop_fanout::total             5263910                       # Request fanout histogram
system.membus.snoop_filter.hit_multi_requests            0                       # Number of requests hitting in the snoop filter with multiple (>1) holders of the requested data.
system.membus.snoop_filter.hit_multi_snoops            0                       # Number of snoops hitting in the snoop filter with multiple (>1) holders of the requested data.
system.membus.snoop_filter.hit_single_requests      5230780                       # Number of requests hitting in the snoop filter with a single holder of the requested data.
system.membus.snoop_filter.hit_single_snoops            0                       # Number of snoops hitting in the snoop filter with a single holder of the requested data.
system.membus.snoop_filter.tot_requests      10494680                       # Total number of requests made to the snoop filter.
system.membus.snoop_filter.tot_snoops               0                       # Total number of snoops made to the snoop filter.
system.membus.snoops                                0                       # Total snoops (count)
system.membus.trans_dist::ReadResp                837                       # Transaction distribution
system.membus.trans_dist::WritebackDirty      5230333                       # Transaction distribution
system.membus.trans_dist::CleanEvict              437                       # Transaction distribution
system.membus.trans_dist::ReadExReq           5263073                       # Transaction distribution
system.membus.trans_dist::ReadExResp          5263073                       # Transaction distribution
system.membus.trans_dist::ReadSharedReq           837                       # Transaction distribution
system.tol2bus.pkt_count_system.cpu.icache.mem_side::system.l2.cpu_side         1708                       # Packet count per connected master and slave (bytes)
system.tol2bus.pkt_count_system.cpu.dcache.mem_side::system.l2.cpu_side     15982721                       # Packet count per connected master and slave (bytes)
system.tol2bus.pkt_count::total              15984429                       # Packet count per connected master and slave (bytes)
system.tol2bus.pkt_size_system.cpu.icache.mem_side::system.l2.cpu_side        65152                       # Cumulative packet size per connected master and slave (bytes)
system.tol2bus.pkt_size_system.cpu.dcache.mem_side::system.l2.cpu_side    677870784                       # Cumulative packet size per connected master and slave (bytes)
system.tol2bus.pkt_size::total              677935936                       # Cumulative packet size per connected master and slave (bytes)
system.tol2bus.pwrStateResidencyTicks::UNDEFINED 705673264000                       # Cumulative time (in ticks) in various power states
system.tol2bus.reqLayer0.occupancy        21184112000                       # Layer occupancy (ticks)
system.tol2bus.reqLayer0.utilization              3.0                       # Layer utilization (%)
system.tol2bus.respLayer0.occupancy           2072997                       # Layer occupancy (ticks)
system.tol2bus.respLayer0.utilization             0.0                       # Layer utilization (%)
system.tol2bus.respLayer1.occupancy       15983749995                       # Layer occupancy (ticks)
system.tol2bus.respLayer1.utilization             2.3                       # Layer utilization (%)
system.tol2bus.snoopTraffic                 334741312                       # Total snoop traffic (bytes)
system.tol2bus.snoop_fanout::samples         10559852                       # Request fanout histogram
system.tol2bus.snoop_fanout::mean            0.002990                       # Request fanout histogram
system.tol2bus.snoop_fanout::stdev           0.054599                       # Request fanout histogram
system.tol2bus.snoop_fanout::underflows             0      0.00%      0.00% # Request fanout histogram
system.tol2bus.snoop_fanout::0               10528278     99.70%     99.70% # Request fanout histogram
system.tol2bus.snoop_fanout::1                  31574      0.30%    100.00% # Request fanout histogram
system.tol2bus.snoop_fanout::2                      0      0.00%    100.00% # Request fanout histogram
system.tol2bus.snoop_fanout::overflows              0      0.00%    100.00% # Request fanout histogram
system.tol2bus.snoop_fanout::min_value              0                       # Request fanout histogram
system.tol2bus.snoop_fanout::max_value              1                       # Request fanout histogram
system.tol2bus.snoop_fanout::total           10559852                       # Request fanout histogram
system.tol2bus.snoop_filter.hit_multi_requests        31097                       # Number of requests hitting in the snoop filter with multiple (>1) holders of the requested data.
system.tol2bus.snoop_filter.hit_multi_snoops            0                       # Number of snoops hitting in the snoop filter with multiple (>1) holders of the requested data.
system.tol2bus.snoop_filter.hit_single_requests      5327219                       # Number of requests hitting in the snoop filter with a single holder of the requested data.
system.tol2bus.snoop_filter.hit_single_snoops          477                       # Number of snoops hitting in the snoop filter with a single holder of the requested data.
system.tol2bus.snoop_filter.tot_requests     10655824                       # Total number of requests made to the snoop filter.
system.tol2bus.snoop_filter.tot_snoops            477                       # Total number of snoops made to the snoop filter.
system.tol2bus.snoops                         5231247                       # Total snoops (count)
system.tol2bus.trans_dist::ReadResp             64092                       # Transaction distribution
system.tol2bus.trans_dist::WritebackDirty     10494149                       # Transaction distribution
system.tol2bus.trans_dist::WritebackClean          328                       # Transaction distribution
system.tol2bus.trans_dist::CleanEvict           63989                       # Transaction distribution
system.tol2bus.trans_dist::ReadExReq          5264513                       # Transaction distribution
system.tol2bus.trans_dist::ReadExResp         5264513                       # Transaction distribution
system.tol2bus.trans_dist::ReadCleanReq           690                       # Transaction distribution
system.tol2bus.trans_dist::ReadSharedReq        63402                       # Transaction distribution
system.voltage_domain.voltage                       1                       # Voltage in Volts

---------- End Simulation Statistics   ----------
