
---------- Begin Simulation Statistics ----------
final_tick                                28976985250                       # Number of ticks from beginning of simulation (restored from checkpoints and never reset)
host_inst_rate                                 206855                       # Simulator instruction rate (inst/s)
host_mem_usage                                 738152                       # Number of bytes of host memory used
host_op_rate                                   226069                       # Simulator op (including micro ops) rate (op/s)
host_seconds                                   483.43                       # Real time elapsed on the host
host_tick_rate                               59940312                       # Simulator tick rate (ticks/s)
sim_freq                                 1000000000000                       # Frequency of simulated ticks
sim_insts                                   100000001                       # Number of instructions simulated
sim_ops                                     109288770                       # Number of ops (including micro ops) simulated
sim_seconds                                  0.028977                       # Number of seconds simulated
sim_ticks                                 28976985250                       # Number of ticks simulated
system.clk_domain.clock                          1000                       # Clock period in ticks
system.cpu.branchPred.BTBCorrect                    0                       # Number of correct BTB predictions (this stat may not work properly.
system.cpu.branchPred.BTBHitPct             86.509294                       # BTB Hit Percentage
system.cpu.branchPred.BTBHits                 8130050                       # Number of BTB hits
system.cpu.branchPred.BTBLookups              9397892                       # Number of BTB lookups
system.cpu.branchPred.RASInCorrect                278                       # Number of incorrect RAS predictions.
system.cpu.branchPred.condIncorrect             71982                       # Number of conditional branches incorrect
system.cpu.branchPred.condPredicted          16289451                       # Number of conditional branches predicted
system.cpu.branchPred.indirectHits             292667                       # Number of indirect target hits.
system.cpu.branchPred.indirectLookups          721527                       # Number of indirect predictor lookups.
system.cpu.branchPred.indirectMisses           428860                       # Number of indirect misses.
system.cpu.branchPred.lookups                20002219                       # Number of BP lookups
system.cpu.branchPred.usedRAS                 1064980                       # Number of times the RAS was used to get a target.
system.cpu.branchPredindirectMispredicted         1099                       # Number of mispredicted indirect branches.
system.cpu.committedInsts                   100000001                       # Number of instructions committed
system.cpu.committedOps                     109288770                       # Number of ops (including micro ops) committed
system.cpu.cpi                               1.159079                       # CPI: cycles per instruction
system.cpu.dcache.LoadLockedReq_accesses::.cpu.data        86984                       # number of LoadLockedReq accesses(hits+misses)
system.cpu.dcache.LoadLockedReq_accesses::total        86984                       # number of LoadLockedReq accesses(hits+misses)
system.cpu.dcache.LoadLockedReq_hits::.cpu.data        86984                       # number of LoadLockedReq hits
system.cpu.dcache.LoadLockedReq_hits::total        86984                       # number of LoadLockedReq hits
system.cpu.dcache.ReadReq_accesses::.cpu.data     20118236                       # number of ReadReq accesses(hits+misses)
system.cpu.dcache.ReadReq_accesses::total     20118236                       # number of ReadReq accesses(hits+misses)
system.cpu.dcache.ReadReq_avg_miss_latency::.cpu.data  8463.083437                       # average ReadReq miss latency
system.cpu.dcache.ReadReq_avg_miss_latency::total  8463.083437                       # average ReadReq miss latency
system.cpu.dcache.ReadReq_avg_mshr_miss_latency::.cpu.data  7734.194259                       # average ReadReq mshr miss latency
system.cpu.dcache.ReadReq_avg_mshr_miss_latency::total  7734.194259                       # average ReadReq mshr miss latency
system.cpu.dcache.ReadReq_hits::.cpu.data     20098868                       # number of ReadReq hits
system.cpu.dcache.ReadReq_hits::total        20098868                       # number of ReadReq hits
system.cpu.dcache.ReadReq_miss_latency::.cpu.data    163913000                       # number of ReadReq miss cycles
system.cpu.dcache.ReadReq_miss_latency::total    163913000                       # number of ReadReq miss cycles
system.cpu.dcache.ReadReq_miss_rate::.cpu.data     0.000963                       # miss rate for ReadReq accesses
system.cpu.dcache.ReadReq_miss_rate::total     0.000963                       # miss rate for ReadReq accesses
system.cpu.dcache.ReadReq_misses::.cpu.data        19368                       # number of ReadReq misses
system.cpu.dcache.ReadReq_misses::total         19368                       # number of ReadReq misses
system.cpu.dcache.ReadReq_mshr_hits::.cpu.data         3029                       # number of ReadReq MSHR hits
system.cpu.dcache.ReadReq_mshr_hits::total         3029                       # number of ReadReq MSHR hits
system.cpu.dcache.ReadReq_mshr_miss_latency::.cpu.data    126369000                       # number of ReadReq MSHR miss cycles
system.cpu.dcache.ReadReq_mshr_miss_latency::total    126369000                       # number of ReadReq MSHR miss cycles
system.cpu.dcache.ReadReq_mshr_miss_rate::.cpu.data     0.000812                       # mshr miss rate for ReadReq accesses
system.cpu.dcache.ReadReq_mshr_miss_rate::total     0.000812                       # mshr miss rate for ReadReq accesses
system.cpu.dcache.ReadReq_mshr_misses::.cpu.data        16339                       # number of ReadReq MSHR misses
system.cpu.dcache.ReadReq_mshr_misses::total        16339                       # number of ReadReq MSHR misses
system.cpu.dcache.SoftPFReq_accesses::.cpu.data        67711                       # number of SoftPFReq accesses(hits+misses)
system.cpu.dcache.SoftPFReq_accesses::total        67711                       # number of SoftPFReq accesses(hits+misses)
system.cpu.dcache.SoftPFReq_avg_mshr_miss_latency::.cpu.data 69312.500000                       # average SoftPFReq mshr miss latency
system.cpu.dcache.SoftPFReq_avg_mshr_miss_latency::total 69312.500000                       # average SoftPFReq mshr miss latency
system.cpu.dcache.SoftPFReq_hits::.cpu.data        67696                       # number of SoftPFReq hits
system.cpu.dcache.SoftPFReq_hits::total         67696                       # number of SoftPFReq hits
system.cpu.dcache.SoftPFReq_miss_rate::.cpu.data     0.000222                       # miss rate for SoftPFReq accesses
system.cpu.dcache.SoftPFReq_miss_rate::total     0.000222                       # miss rate for SoftPFReq accesses
system.cpu.dcache.SoftPFReq_misses::.cpu.data           15                       # number of SoftPFReq misses
system.cpu.dcache.SoftPFReq_misses::total           15                       # number of SoftPFReq misses
system.cpu.dcache.SoftPFReq_mshr_miss_latency::.cpu.data       831750                       # number of SoftPFReq MSHR miss cycles
system.cpu.dcache.SoftPFReq_mshr_miss_latency::total       831750                       # number of SoftPFReq MSHR miss cycles
system.cpu.dcache.SoftPFReq_mshr_miss_rate::.cpu.data     0.000177                       # mshr miss rate for SoftPFReq accesses
system.cpu.dcache.SoftPFReq_mshr_miss_rate::total     0.000177                       # mshr miss rate for SoftPFReq accesses
system.cpu.dcache.SoftPFReq_mshr_misses::.cpu.data           12                       # number of SoftPFReq MSHR misses
system.cpu.dcache.SoftPFReq_mshr_misses::total           12                       # number of SoftPFReq MSHR misses
system.cpu.dcache.StoreCondReq_accesses::.cpu.data        86984                       # number of StoreCondReq accesses(hits+misses)
system.cpu.dcache.StoreCondReq_accesses::total        86984                       # number of StoreCondReq accesses(hits+misses)
system.cpu.dcache.StoreCondReq_hits::.cpu.data        86984                       # number of StoreCondReq hits
system.cpu.dcache.StoreCondReq_hits::total        86984                       # number of StoreCondReq hits
system.cpu.dcache.WriteReq_accesses::.cpu.data     14209586                       # number of WriteReq accesses(hits+misses)
system.cpu.dcache.WriteReq_accesses::total     14209586                       # number of WriteReq accesses(hits+misses)
system.cpu.dcache.WriteReq_avg_miss_latency::.cpu.data 64015.933638                       # average WriteReq miss latency
system.cpu.dcache.WriteReq_avg_miss_latency::total 64015.933638                       # average WriteReq miss latency
system.cpu.dcache.WriteReq_avg_mshr_miss_latency::.cpu.data 65852.566268                       # average WriteReq mshr miss latency
system.cpu.dcache.WriteReq_avg_mshr_miss_latency::total 65852.566268                       # average WriteReq mshr miss latency
system.cpu.dcache.WriteReq_hits::.cpu.data     14154404                       # number of WriteReq hits
system.cpu.dcache.WriteReq_hits::total       14154404                       # number of WriteReq hits
system.cpu.dcache.WriteReq_miss_latency::.cpu.data   3532527250                       # number of WriteReq miss cycles
system.cpu.dcache.WriteReq_miss_latency::total   3532527250                       # number of WriteReq miss cycles
system.cpu.dcache.WriteReq_miss_rate::.cpu.data     0.003883                       # miss rate for WriteReq accesses
system.cpu.dcache.WriteReq_miss_rate::total     0.003883                       # miss rate for WriteReq accesses
system.cpu.dcache.WriteReq_misses::.cpu.data        55182                       # number of WriteReq misses
system.cpu.dcache.WriteReq_misses::total        55182                       # number of WriteReq misses
system.cpu.dcache.WriteReq_mshr_hits::.cpu.data        16702                       # number of WriteReq MSHR hits
system.cpu.dcache.WriteReq_mshr_hits::total        16702                       # number of WriteReq MSHR hits
system.cpu.dcache.WriteReq_mshr_miss_latency::.cpu.data   2534006750                       # number of WriteReq MSHR miss cycles
system.cpu.dcache.WriteReq_mshr_miss_latency::total   2534006750                       # number of WriteReq MSHR miss cycles
system.cpu.dcache.WriteReq_mshr_miss_rate::.cpu.data     0.002708                       # mshr miss rate for WriteReq accesses
system.cpu.dcache.WriteReq_mshr_miss_rate::total     0.002708                       # mshr miss rate for WriteReq accesses
system.cpu.dcache.WriteReq_mshr_misses::.cpu.data        38480                       # number of WriteReq MSHR misses
system.cpu.dcache.WriteReq_mshr_misses::total        38480                       # number of WriteReq MSHR misses
system.cpu.dcache.avg_blocked_cycles::no_mshrs          nan                       # average number of cycles each access was blocked
system.cpu.dcache.avg_blocked_cycles::no_targets          nan                       # average number of cycles each access was blocked
system.cpu.dcache.blocked::no_mshrs                 0                       # number of cycles access was blocked
system.cpu.dcache.blocked::no_targets               0                       # number of cycles access was blocked
system.cpu.dcache.blocked_cycles::no_mshrs            0                       # number of cycles access was blocked
system.cpu.dcache.blocked_cycles::no_targets            0                       # number of cycles access was blocked
system.cpu.dcache.demand_accesses::.cpu.data     34327822                       # number of demand (read+write) accesses
system.cpu.dcache.demand_accesses::total     34327822                       # number of demand (read+write) accesses
system.cpu.dcache.demand_avg_miss_latency::.cpu.data 49583.370221                       # average overall miss latency
system.cpu.dcache.demand_avg_miss_latency::total 49583.370221                       # average overall miss latency
system.cpu.dcache.demand_avg_mshr_miss_latency::.cpu.data 48530.176581                       # average overall mshr miss latency
system.cpu.dcache.demand_avg_mshr_miss_latency::total 48530.176581                       # average overall mshr miss latency
system.cpu.dcache.demand_hits::.cpu.data     34253272                       # number of demand (read+write) hits
system.cpu.dcache.demand_hits::total         34253272                       # number of demand (read+write) hits
system.cpu.dcache.demand_miss_latency::.cpu.data   3696440250                       # number of demand (read+write) miss cycles
system.cpu.dcache.demand_miss_latency::total   3696440250                       # number of demand (read+write) miss cycles
system.cpu.dcache.demand_miss_rate::.cpu.data     0.002172                       # miss rate for demand accesses
system.cpu.dcache.demand_miss_rate::total     0.002172                       # miss rate for demand accesses
system.cpu.dcache.demand_misses::.cpu.data        74550                       # number of demand (read+write) misses
system.cpu.dcache.demand_misses::total          74550                       # number of demand (read+write) misses
system.cpu.dcache.demand_mshr_hits::.cpu.data        19731                       # number of demand (read+write) MSHR hits
system.cpu.dcache.demand_mshr_hits::total        19731                       # number of demand (read+write) MSHR hits
system.cpu.dcache.demand_mshr_miss_latency::.cpu.data   2660375750                       # number of demand (read+write) MSHR miss cycles
system.cpu.dcache.demand_mshr_miss_latency::total   2660375750                       # number of demand (read+write) MSHR miss cycles
system.cpu.dcache.demand_mshr_miss_rate::.cpu.data     0.001597                       # mshr miss rate for demand accesses
system.cpu.dcache.demand_mshr_miss_rate::total     0.001597                       # mshr miss rate for demand accesses
system.cpu.dcache.demand_mshr_misses::.cpu.data        54819                       # number of demand (read+write) MSHR misses
system.cpu.dcache.demand_mshr_misses::total        54819                       # number of demand (read+write) MSHR misses
system.cpu.dcache.overall_accesses::.cpu.data     34395533                       # number of overall (read+write) accesses
system.cpu.dcache.overall_accesses::total     34395533                       # number of overall (read+write) accesses
system.cpu.dcache.overall_avg_miss_latency::.cpu.data 49573.395695                       # average overall miss latency
system.cpu.dcache.overall_avg_miss_latency::total 49573.395695                       # average overall miss latency
system.cpu.dcache.overall_avg_mshr_miss_latency::.cpu.data 48534.724882                       # average overall mshr miss latency
system.cpu.dcache.overall_avg_mshr_miss_latency::total 48534.724882                       # average overall mshr miss latency
system.cpu.dcache.overall_hits::.cpu.data     34320968                       # number of overall hits
system.cpu.dcache.overall_hits::total        34320968                       # number of overall hits
system.cpu.dcache.overall_miss_latency::.cpu.data   3696440250                       # number of overall miss cycles
system.cpu.dcache.overall_miss_latency::total   3696440250                       # number of overall miss cycles
system.cpu.dcache.overall_miss_rate::.cpu.data     0.002168                       # miss rate for overall accesses
system.cpu.dcache.overall_miss_rate::total     0.002168                       # miss rate for overall accesses
system.cpu.dcache.overall_misses::.cpu.data        74565                       # number of overall misses
system.cpu.dcache.overall_misses::total         74565                       # number of overall misses
system.cpu.dcache.overall_mshr_hits::.cpu.data        19731                       # number of overall MSHR hits
system.cpu.dcache.overall_mshr_hits::total        19731                       # number of overall MSHR hits
system.cpu.dcache.overall_mshr_miss_latency::.cpu.data   2661207500                       # number of overall MSHR miss cycles
system.cpu.dcache.overall_mshr_miss_latency::total   2661207500                       # number of overall MSHR miss cycles
system.cpu.dcache.overall_mshr_miss_rate::.cpu.data     0.001594                       # mshr miss rate for overall accesses
system.cpu.dcache.overall_mshr_miss_rate::total     0.001594                       # mshr miss rate for overall accesses
system.cpu.dcache.overall_mshr_misses::.cpu.data        54831                       # number of overall MSHR misses
system.cpu.dcache.overall_mshr_misses::total        54831                       # number of overall MSHR misses
system.cpu.dcache.pwrStateResidencyTicks::UNDEFINED  28976985250                       # Cumulative time (in ticks) in various power states
system.cpu.dcache.replacements                  53807                       # number of replacements
system.cpu.dcache.tags.age_task_id_blocks_1024::0           14                       # Occupied blocks per task id
system.cpu.dcache.tags.age_task_id_blocks_1024::1          103                       # Occupied blocks per task id
system.cpu.dcache.tags.age_task_id_blocks_1024::2          634                       # Occupied blocks per task id
system.cpu.dcache.tags.age_task_id_blocks_1024::3          240                       # Occupied blocks per task id
system.cpu.dcache.tags.age_task_id_blocks_1024::4           33                       # Occupied blocks per task id
system.cpu.dcache.tags.avg_refs            630.113750                       # Average number of references to valid blocks.
system.cpu.dcache.tags.data_accesses         69193833                       # Number of data accesses
system.cpu.dcache.tags.occ_blocks::.cpu.data  1019.470084                       # Average occupied blocks per requestor
system.cpu.dcache.tags.occ_percent::.cpu.data     0.995576                       # Average percentage of cache occupancy
system.cpu.dcache.tags.occ_percent::total     0.995576                       # Average percentage of cache occupancy
system.cpu.dcache.tags.occ_task_id_blocks::1024         1024                       # Occupied blocks per task id
system.cpu.dcache.tags.occ_task_id_percent::1024            1                       # Percentage of cache occupancy per task id
system.cpu.dcache.tags.pwrStateResidencyTicks::UNDEFINED  28976985250                       # Cumulative time (in ticks) in various power states
system.cpu.dcache.tags.sampled_refs             54831                       # Sample count of references to valid blocks.
system.cpu.dcache.tags.tag_accesses          69193833                       # Number of tag accesses
system.cpu.dcache.tags.tagsinuse          1019.470084                       # Cycle average of tags in use
system.cpu.dcache.tags.total_refs            34549767                       # Total number of references to valid blocks.
system.cpu.dcache.tags.warmup_cycle            158250                       # Cycle when the warmup percentage was hit.
system.cpu.dcache.writebacks::.writebacks        49994                       # number of writebacks
system.cpu.dcache.writebacks::total             49994                       # number of writebacks
system.cpu.discardedOps                        403010                       # Number of ops (including micro ops) which were discarded before commit
system.cpu.dstage2_mmu.stage2_tlb.accesses            0                       # DTB accesses
system.cpu.dstage2_mmu.stage2_tlb.align_faults            0                       # Number of TLB faults due to alignment restrictions
system.cpu.dstage2_mmu.stage2_tlb.domain_faults            0                       # Number of TLB faults due to domain restrictions
system.cpu.dstage2_mmu.stage2_tlb.flush_entries            0                       # Number of entries that have been flushed from TLB
system.cpu.dstage2_mmu.stage2_tlb.flush_tlb            0                       # Number of times complete TLB was flushed
system.cpu.dstage2_mmu.stage2_tlb.flush_tlb_asid            0                       # Number of times TLB was flushed by ASID
system.cpu.dstage2_mmu.stage2_tlb.flush_tlb_mva            0                       # Number of times TLB was flushed by MVA
system.cpu.dstage2_mmu.stage2_tlb.flush_tlb_mva_asid            0                       # Number of times TLB was flushed by MVA & ASID
system.cpu.dstage2_mmu.stage2_tlb.hits              0                       # DTB hits
system.cpu.dstage2_mmu.stage2_tlb.inst_accesses            0                       # ITB inst accesses
system.cpu.dstage2_mmu.stage2_tlb.inst_hits            0                       # ITB inst hits
system.cpu.dstage2_mmu.stage2_tlb.inst_misses            0                       # ITB inst misses
system.cpu.dstage2_mmu.stage2_tlb.misses            0                       # DTB misses
system.cpu.dstage2_mmu.stage2_tlb.perms_faults            0                       # Number of TLB faults due to permissions restrictions
system.cpu.dstage2_mmu.stage2_tlb.prefetch_faults            0                       # Number of TLB faults due to prefetch
system.cpu.dstage2_mmu.stage2_tlb.read_accesses            0                       # DTB read accesses
system.cpu.dstage2_mmu.stage2_tlb.read_hits            0                       # DTB read hits
system.cpu.dstage2_mmu.stage2_tlb.read_misses            0                       # DTB read misses
system.cpu.dstage2_mmu.stage2_tlb.walker.pwrStateResidencyTicks::UNDEFINED  28976985250                       # Cumulative time (in ticks) in various power states
system.cpu.dstage2_mmu.stage2_tlb.walker.walkRequestOrigin_Requested::Data            0                       # Table walker requests started/completed, data/inst
system.cpu.dstage2_mmu.stage2_tlb.walker.walkRequestOrigin_Requested::Inst            0                       # Table walker requests started/completed, data/inst
system.cpu.dstage2_mmu.stage2_tlb.walker.walkRequestOrigin_Requested::total            0                       # Table walker requests started/completed, data/inst
system.cpu.dstage2_mmu.stage2_tlb.walker.walkRequestOrigin_Completed::Data            0                       # Table walker requests started/completed, data/inst
system.cpu.dstage2_mmu.stage2_tlb.walker.walkRequestOrigin_Completed::Inst            0                       # Table walker requests started/completed, data/inst
system.cpu.dstage2_mmu.stage2_tlb.walker.walkRequestOrigin_Completed::total            0                       # Table walker requests started/completed, data/inst
system.cpu.dstage2_mmu.stage2_tlb.walker.walkRequestOrigin::total            0                       # Table walker requests started/completed, data/inst
system.cpu.dstage2_mmu.stage2_tlb.walker.walks            0                       # Table walker walks requested
system.cpu.dstage2_mmu.stage2_tlb.write_accesses            0                       # DTB write accesses
system.cpu.dstage2_mmu.stage2_tlb.write_hits            0                       # DTB write hits
system.cpu.dstage2_mmu.stage2_tlb.write_misses            0                       # DTB write misses
system.cpu.dtb.accesses                             0                       # DTB accesses
system.cpu.dtb.align_faults                         0                       # Number of TLB faults due to alignment restrictions
system.cpu.dtb.domain_faults                        0                       # Number of TLB faults due to domain restrictions
system.cpu.dtb.flush_entries                        0                       # Number of entries that have been flushed from TLB
system.cpu.dtb.flush_tlb                            0                       # Number of times complete TLB was flushed
system.cpu.dtb.flush_tlb_asid                       0                       # Number of times TLB was flushed by ASID
system.cpu.dtb.flush_tlb_mva                        0                       # Number of times TLB was flushed by MVA
system.cpu.dtb.flush_tlb_mva_asid                   0                       # Number of times TLB was flushed by MVA & ASID
system.cpu.dtb.hits                                 0                       # DTB hits
system.cpu.dtb.inst_accesses                        0                       # ITB inst accesses
system.cpu.dtb.inst_hits                            0                       # ITB inst hits
system.cpu.dtb.inst_misses                          0                       # ITB inst misses
system.cpu.dtb.misses                               0                       # DTB misses
system.cpu.dtb.perms_faults                         0                       # Number of TLB faults due to permissions restrictions
system.cpu.dtb.prefetch_faults                      0                       # Number of TLB faults due to prefetch
system.cpu.dtb.read_accesses                        0                       # DTB read accesses
system.cpu.dtb.read_hits                            0                       # DTB read hits
system.cpu.dtb.read_misses                          0                       # DTB read misses
system.cpu.dtb.walker.pwrStateResidencyTicks::UNDEFINED  28976985250                       # Cumulative time (in ticks) in various power states
system.cpu.dtb.walker.walkRequestOrigin_Requested::Data            0                       # Table walker requests started/completed, data/inst
system.cpu.dtb.walker.walkRequestOrigin_Requested::Inst            0                       # Table walker requests started/completed, data/inst
system.cpu.dtb.walker.walkRequestOrigin_Requested::total            0                       # Table walker requests started/completed, data/inst
system.cpu.dtb.walker.walkRequestOrigin_Completed::Data            0                       # Table walker requests started/completed, data/inst
system.cpu.dtb.walker.walkRequestOrigin_Completed::Inst            0                       # Table walker requests started/completed, data/inst
system.cpu.dtb.walker.walkRequestOrigin_Completed::total            0                       # Table walker requests started/completed, data/inst
system.cpu.dtb.walker.walkRequestOrigin::total            0                       # Table walker requests started/completed, data/inst
system.cpu.dtb.walker.walks                         0                       # Table walker walks requested
system.cpu.dtb.write_accesses                       0                       # DTB write accesses
system.cpu.dtb.write_hits                           0                       # DTB write hits
system.cpu.dtb.write_misses                         0                       # DTB write misses
system.cpu.fetch2.amo_instructions                  0                       # Number of memory atomic instructions successfully decoded
system.cpu.fetch2.fp_instructions                   0                       # Number of floating point instructions successfully decoded
system.cpu.fetch2.int_instructions           50259337                       # Number of integer instructions successfully decoded
system.cpu.fetch2.load_instructions          16769446                       # Number of memory load instructions successfully decoded
system.cpu.fetch2.store_instructions          9741809                       # Number of memory store instructions successfully decoded
system.cpu.fetch2.vec_instructions                  0                       # Number of SIMD instructions successfully decoded
system.cpu.icache.ReadReq_accesses::.cpu.inst     27202003                       # number of ReadReq accesses(hits+misses)
system.cpu.icache.ReadReq_accesses::total     27202003                       # number of ReadReq accesses(hits+misses)
system.cpu.icache.ReadReq_avg_miss_latency::.cpu.inst 34958.372753                       # average ReadReq miss latency
system.cpu.icache.ReadReq_avg_miss_latency::total 34958.372753                       # average ReadReq miss latency
system.cpu.icache.ReadReq_avg_mshr_miss_latency::.cpu.inst 34458.372753                       # average ReadReq mshr miss latency
system.cpu.icache.ReadReq_avg_mshr_miss_latency::total 34458.372753                       # average ReadReq mshr miss latency
system.cpu.icache.ReadReq_hits::.cpu.inst     27200946                       # number of ReadReq hits
system.cpu.icache.ReadReq_hits::total        27200946                       # number of ReadReq hits
system.cpu.icache.ReadReq_miss_latency::.cpu.inst     36951000                       # number of ReadReq miss cycles
system.cpu.icache.ReadReq_miss_latency::total     36951000                       # number of ReadReq miss cycles
system.cpu.icache.ReadReq_miss_rate::.cpu.inst     0.000039                       # miss rate for ReadReq accesses
system.cpu.icache.ReadReq_miss_rate::total     0.000039                       # miss rate for ReadReq accesses
system.cpu.icache.ReadReq_misses::.cpu.inst         1057                       # number of ReadReq misses
system.cpu.icache.ReadReq_misses::total          1057                       # number of ReadReq misses
system.cpu.icache.ReadReq_mshr_miss_latency::.cpu.inst     36422500                       # number of ReadReq MSHR miss cycles
system.cpu.icache.ReadReq_mshr_miss_latency::total     36422500                       # number of ReadReq MSHR miss cycles
system.cpu.icache.ReadReq_mshr_miss_rate::.cpu.inst     0.000039                       # mshr miss rate for ReadReq accesses
system.cpu.icache.ReadReq_mshr_miss_rate::total     0.000039                       # mshr miss rate for ReadReq accesses
system.cpu.icache.ReadReq_mshr_misses::.cpu.inst         1057                       # number of ReadReq MSHR misses
system.cpu.icache.ReadReq_mshr_misses::total         1057                       # number of ReadReq MSHR misses
system.cpu.icache.avg_blocked_cycles::no_mshrs          nan                       # average number of cycles each access was blocked
system.cpu.icache.avg_blocked_cycles::no_targets          nan                       # average number of cycles each access was blocked
system.cpu.icache.blocked::no_mshrs                 0                       # number of cycles access was blocked
system.cpu.icache.blocked::no_targets               0                       # number of cycles access was blocked
system.cpu.icache.blocked_cycles::no_mshrs            0                       # number of cycles access was blocked
system.cpu.icache.blocked_cycles::no_targets            0                       # number of cycles access was blocked
system.cpu.icache.demand_accesses::.cpu.inst     27202003                       # number of demand (read+write) accesses
system.cpu.icache.demand_accesses::total     27202003                       # number of demand (read+write) accesses
system.cpu.icache.demand_avg_miss_latency::.cpu.inst 34958.372753                       # average overall miss latency
system.cpu.icache.demand_avg_miss_latency::total 34958.372753                       # average overall miss latency
system.cpu.icache.demand_avg_mshr_miss_latency::.cpu.inst 34458.372753                       # average overall mshr miss latency
system.cpu.icache.demand_avg_mshr_miss_latency::total 34458.372753                       # average overall mshr miss latency
system.cpu.icache.demand_hits::.cpu.inst     27200946                       # number of demand (read+write) hits
system.cpu.icache.demand_hits::total         27200946                       # number of demand (read+write) hits
system.cpu.icache.demand_miss_latency::.cpu.inst     36951000                       # number of demand (read+write) miss cycles
system.cpu.icache.demand_miss_latency::total     36951000                       # number of demand (read+write) miss cycles
system.cpu.icache.demand_miss_rate::.cpu.inst     0.000039                       # miss rate for demand accesses
system.cpu.icache.demand_miss_rate::total     0.000039                       # miss rate for demand accesses
system.cpu.icache.demand_misses::.cpu.inst         1057                       # number of demand (read+write) misses
system.cpu.icache.demand_misses::total           1057                       # number of demand (read+write) misses
system.cpu.icache.demand_mshr_miss_latency::.cpu.inst     36422500                       # number of demand (read+write) MSHR miss cycles
system.cpu.icache.demand_mshr_miss_latency::total     36422500                       # number of demand (read+write) MSHR miss cycles
system.cpu.icache.demand_mshr_miss_rate::.cpu.inst     0.000039                       # mshr miss rate for demand accesses
system.cpu.icache.demand_mshr_miss_rate::total     0.000039                       # mshr miss rate for demand accesses
system.cpu.icache.demand_mshr_misses::.cpu.inst         1057                       # number of demand (read+write) MSHR misses
system.cpu.icache.demand_mshr_misses::total         1057                       # number of demand (read+write) MSHR misses
system.cpu.icache.overall_accesses::.cpu.inst     27202003                       # number of overall (read+write) accesses
system.cpu.icache.overall_accesses::total     27202003                       # number of overall (read+write) accesses
system.cpu.icache.overall_avg_miss_latency::.cpu.inst 34958.372753                       # average overall miss latency
system.cpu.icache.overall_avg_miss_latency::total 34958.372753                       # average overall miss latency
system.cpu.icache.overall_avg_mshr_miss_latency::.cpu.inst 34458.372753                       # average overall mshr miss latency
system.cpu.icache.overall_avg_mshr_miss_latency::total 34458.372753                       # average overall mshr miss latency
system.cpu.icache.overall_hits::.cpu.inst     27200946                       # number of overall hits
system.cpu.icache.overall_hits::total        27200946                       # number of overall hits
system.cpu.icache.overall_miss_latency::.cpu.inst     36951000                       # number of overall miss cycles
system.cpu.icache.overall_miss_latency::total     36951000                       # number of overall miss cycles
system.cpu.icache.overall_miss_rate::.cpu.inst     0.000039                       # miss rate for overall accesses
system.cpu.icache.overall_miss_rate::total     0.000039                       # miss rate for overall accesses
system.cpu.icache.overall_misses::.cpu.inst         1057                       # number of overall misses
system.cpu.icache.overall_misses::total          1057                       # number of overall misses
system.cpu.icache.overall_mshr_miss_latency::.cpu.inst     36422500                       # number of overall MSHR miss cycles
system.cpu.icache.overall_mshr_miss_latency::total     36422500                       # number of overall MSHR miss cycles
system.cpu.icache.overall_mshr_miss_rate::.cpu.inst     0.000039                       # mshr miss rate for overall accesses
system.cpu.icache.overall_mshr_miss_rate::total     0.000039                       # mshr miss rate for overall accesses
system.cpu.icache.overall_mshr_misses::.cpu.inst         1057                       # number of overall MSHR misses
system.cpu.icache.overall_mshr_misses::total         1057                       # number of overall MSHR misses
system.cpu.icache.pwrStateResidencyTicks::UNDEFINED  28976985250                       # Cumulative time (in ticks) in various power states
system.cpu.icache.replacements                    672                       # number of replacements
system.cpu.icache.tags.age_task_id_blocks_1024::1            4                       # Occupied blocks per task id
system.cpu.icache.tags.age_task_id_blocks_1024::4          381                       # Occupied blocks per task id
system.cpu.icache.tags.avg_refs          25735.102176                       # Average number of references to valid blocks.
system.cpu.icache.tags.data_accesses         54405063                       # Number of data accesses
system.cpu.icache.tags.occ_blocks::.cpu.inst   384.750604                       # Average occupied blocks per requestor
system.cpu.icache.tags.occ_percent::.cpu.inst     0.751466                       # Average percentage of cache occupancy
system.cpu.icache.tags.occ_percent::total     0.751466                       # Average percentage of cache occupancy
system.cpu.icache.tags.occ_task_id_blocks::1024          385                       # Occupied blocks per task id
system.cpu.icache.tags.occ_task_id_percent::1024     0.751953                       # Percentage of cache occupancy per task id
system.cpu.icache.tags.pwrStateResidencyTicks::UNDEFINED  28976985250                       # Cumulative time (in ticks) in various power states
system.cpu.icache.tags.sampled_refs              1057                       # Sample count of references to valid blocks.
system.cpu.icache.tags.tag_accesses          54405063                       # Number of tag accesses
system.cpu.icache.tags.tagsinuse           384.750604                       # Cycle average of tags in use
system.cpu.icache.tags.total_refs            27202003                       # Total number of references to valid blocks.
system.cpu.icache.tags.warmup_cycle             82250                       # Cycle when the warmup percentage was hit.
system.cpu.icache.writebacks::.writebacks          672                       # number of writebacks
system.cpu.icache.writebacks::total               672                       # number of writebacks
system.cpu.idleCycles                         5377206                       # Total number of cycles that the object has spent stopped
system.cpu.ipc                               0.862754                       # IPC: instructions per cycle
system.cpu.istage2_mmu.stage2_tlb.accesses            0                       # DTB accesses
system.cpu.istage2_mmu.stage2_tlb.align_faults            0                       # Number of TLB faults due to alignment restrictions
system.cpu.istage2_mmu.stage2_tlb.domain_faults            0                       # Number of TLB faults due to domain restrictions
system.cpu.istage2_mmu.stage2_tlb.flush_entries            0                       # Number of entries that have been flushed from TLB
system.cpu.istage2_mmu.stage2_tlb.flush_tlb            0                       # Number of times complete TLB was flushed
system.cpu.istage2_mmu.stage2_tlb.flush_tlb_asid            0                       # Number of times TLB was flushed by ASID
system.cpu.istage2_mmu.stage2_tlb.flush_tlb_mva            0                       # Number of times TLB was flushed by MVA
system.cpu.istage2_mmu.stage2_tlb.flush_tlb_mva_asid            0                       # Number of times TLB was flushed by MVA & ASID
system.cpu.istage2_mmu.stage2_tlb.hits              0                       # DTB hits
system.cpu.istage2_mmu.stage2_tlb.inst_accesses            0                       # ITB inst accesses
system.cpu.istage2_mmu.stage2_tlb.inst_hits            0                       # ITB inst hits
system.cpu.istage2_mmu.stage2_tlb.inst_misses            0                       # ITB inst misses
system.cpu.istage2_mmu.stage2_tlb.misses            0                       # DTB misses
system.cpu.istage2_mmu.stage2_tlb.perms_faults            0                       # Number of TLB faults due to permissions restrictions
system.cpu.istage2_mmu.stage2_tlb.prefetch_faults            0                       # Number of TLB faults due to prefetch
system.cpu.istage2_mmu.stage2_tlb.read_accesses            0                       # DTB read accesses
system.cpu.istage2_mmu.stage2_tlb.read_hits            0                       # DTB read hits
system.cpu.istage2_mmu.stage2_tlb.read_misses            0                       # DTB read misses
system.cpu.istage2_mmu.stage2_tlb.walker.pwrStateResidencyTicks::UNDEFINED  28976985250                       # Cumulative time (in ticks) in various power states
system.cpu.istage2_mmu.stage2_tlb.walker.walkRequestOrigin_Requested::Data            0                       # Table walker requests started/completed, data/inst
system.cpu.istage2_mmu.stage2_tlb.walker.walkRequestOrigin_Requested::Inst            0                       # Table walker requests started/completed, data/inst
system.cpu.istage2_mmu.stage2_tlb.walker.walkRequestOrigin_Requested::total            0                       # Table walker requests started/completed, data/inst
system.cpu.istage2_mmu.stage2_tlb.walker.walkRequestOrigin_Completed::Data            0                       # Table walker requests started/completed, data/inst
system.cpu.istage2_mmu.stage2_tlb.walker.walkRequestOrigin_Completed::Inst            0                       # Table walker requests started/completed, data/inst
system.cpu.istage2_mmu.stage2_tlb.walker.walkRequestOrigin_Completed::total            0                       # Table walker requests started/completed, data/inst
system.cpu.istage2_mmu.stage2_tlb.walker.walkRequestOrigin::total            0                       # Table walker requests started/completed, data/inst
system.cpu.istage2_mmu.stage2_tlb.walker.walks            0                       # Table walker walks requested
system.cpu.istage2_mmu.stage2_tlb.write_accesses            0                       # DTB write accesses
system.cpu.istage2_mmu.stage2_tlb.write_hits            0                       # DTB write hits
system.cpu.istage2_mmu.stage2_tlb.write_misses            0                       # DTB write misses
system.cpu.itb.accesses                             0                       # DTB accesses
system.cpu.itb.align_faults                         0                       # Number of TLB faults due to alignment restrictions
system.cpu.itb.domain_faults                        0                       # Number of TLB faults due to domain restrictions
system.cpu.itb.flush_entries                        0                       # Number of entries that have been flushed from TLB
system.cpu.itb.flush_tlb                            0                       # Number of times complete TLB was flushed
system.cpu.itb.flush_tlb_asid                       0                       # Number of times TLB was flushed by ASID
system.cpu.itb.flush_tlb_mva                        0                       # Number of times TLB was flushed by MVA
system.cpu.itb.flush_tlb_mva_asid                   0                       # Number of times TLB was flushed by MVA & ASID
system.cpu.itb.hits                                 0                       # DTB hits
system.cpu.itb.inst_accesses                        0                       # ITB inst accesses
system.cpu.itb.inst_hits                            0                       # ITB inst hits
system.cpu.itb.inst_misses                          0                       # ITB inst misses
system.cpu.itb.misses                               0                       # DTB misses
system.cpu.itb.perms_faults                         0                       # Number of TLB faults due to permissions restrictions
system.cpu.itb.prefetch_faults                      0                       # Number of TLB faults due to prefetch
system.cpu.itb.read_accesses                        0                       # DTB read accesses
system.cpu.itb.read_hits                            0                       # DTB read hits
system.cpu.itb.read_misses                          0                       # DTB read misses
system.cpu.itb.walker.pwrStateResidencyTicks::UNDEFINED  28976985250                       # Cumulative time (in ticks) in various power states
system.cpu.itb.walker.walkRequestOrigin_Requested::Data            0                       # Table walker requests started/completed, data/inst
system.cpu.itb.walker.walkRequestOrigin_Requested::Inst            0                       # Table walker requests started/completed, data/inst
system.cpu.itb.walker.walkRequestOrigin_Requested::total            0                       # Table walker requests started/completed, data/inst
system.cpu.itb.walker.walkRequestOrigin_Completed::Data            0                       # Table walker requests started/completed, data/inst
system.cpu.itb.walker.walkRequestOrigin_Completed::Inst            0                       # Table walker requests started/completed, data/inst
system.cpu.itb.walker.walkRequestOrigin_Completed::total            0                       # Table walker requests started/completed, data/inst
system.cpu.itb.walker.walkRequestOrigin::total            0                       # Table walker requests started/completed, data/inst
system.cpu.itb.walker.walks                         0                       # Table walker walks requested
system.cpu.itb.write_accesses                       0                       # DTB write accesses
system.cpu.itb.write_hits                           0                       # DTB write hits
system.cpu.itb.write_misses                         0                       # DTB write misses
system.cpu.numCycles                        115907941                       # number of cpu cycles simulated
system.cpu.numFetchSuspends                         0                       # Number of times Execute suspended instruction fetching
system.cpu.numWorkItemsCompleted                    0                       # number of work items this cpu completed
system.cpu.numWorkItemsStarted                      0                       # number of work items this cpu started
system.cpu.op_class_0::No_OpClass                   0      0.00%      0.00% # Class of committed instruction
system.cpu.op_class_0::IntAlu                73313980     67.08%     67.08% # Class of committed instruction
system.cpu.op_class_0::IntMult                 555570      0.51%     67.59% # Class of committed instruction
system.cpu.op_class_0::IntDiv                       0      0.00%     67.59% # Class of committed instruction
system.cpu.op_class_0::FloatAdd                     0      0.00%     67.59% # Class of committed instruction
system.cpu.op_class_0::FloatCmp                     0      0.00%     67.59% # Class of committed instruction
system.cpu.op_class_0::FloatCvt                     0      0.00%     67.59% # Class of committed instruction
system.cpu.op_class_0::FloatMult                    0      0.00%     67.59% # Class of committed instruction
system.cpu.op_class_0::FloatMultAcc                 0      0.00%     67.59% # Class of committed instruction
system.cpu.op_class_0::FloatDiv                     0      0.00%     67.59% # Class of committed instruction
system.cpu.op_class_0::FloatMisc                    0      0.00%     67.59% # Class of committed instruction
system.cpu.op_class_0::FloatSqrt                    0      0.00%     67.59% # Class of committed instruction
system.cpu.op_class_0::SimdAdd                 235468      0.22%     67.81% # Class of committed instruction
system.cpu.op_class_0::SimdAddAcc                   0      0.00%     67.81% # Class of committed instruction
system.cpu.op_class_0::SimdAlu                 150962      0.14%     67.94% # Class of committed instruction
system.cpu.op_class_0::SimdCmp                 117734      0.11%     68.05% # Class of committed instruction
system.cpu.op_class_0::SimdCvt                      0      0.00%     68.05% # Class of committed instruction
system.cpu.op_class_0::SimdMisc                 43495      0.04%     68.09% # Class of committed instruction
system.cpu.op_class_0::SimdMult                     0      0.00%     68.09% # Class of committed instruction
system.cpu.op_class_0::SimdMultAcc                  0      0.00%     68.09% # Class of committed instruction
system.cpu.op_class_0::SimdShift                    0      0.00%     68.09% # Class of committed instruction
system.cpu.op_class_0::SimdShiftAcc                 0      0.00%     68.09% # Class of committed instruction
system.cpu.op_class_0::SimdDiv                      0      0.00%     68.09% # Class of committed instruction
system.cpu.op_class_0::SimdSqrt                     0      0.00%     68.09% # Class of committed instruction
system.cpu.op_class_0::SimdFloatAdd                 0      0.00%     68.09% # Class of committed instruction
system.cpu.op_class_0::SimdFloatAlu                 0      0.00%     68.09% # Class of committed instruction
system.cpu.op_class_0::SimdFloatCmp                 0      0.00%     68.09% # Class of committed instruction
system.cpu.op_class_0::SimdFloatCvt                 0      0.00%     68.09% # Class of committed instruction
system.cpu.op_class_0::SimdFloatDiv                 0      0.00%     68.09% # Class of committed instruction
system.cpu.op_class_0::SimdFloatMisc           162471      0.15%     68.24% # Class of committed instruction
system.cpu.op_class_0::SimdFloatMult                0      0.00%     68.24% # Class of committed instruction
system.cpu.op_class_0::SimdFloatMultAcc             0      0.00%     68.24% # Class of committed instruction
system.cpu.op_class_0::SimdFloatSqrt                0      0.00%     68.24% # Class of committed instruction
system.cpu.op_class_0::SimdReduceAdd                0      0.00%     68.24% # Class of committed instruction
system.cpu.op_class_0::SimdReduceAlu                0      0.00%     68.24% # Class of committed instruction
system.cpu.op_class_0::SimdReduceCmp                0      0.00%     68.24% # Class of committed instruction
system.cpu.op_class_0::SimdFloatReduceAdd            0      0.00%     68.24% # Class of committed instruction
system.cpu.op_class_0::SimdFloatReduceCmp            0      0.00%     68.24% # Class of committed instruction
system.cpu.op_class_0::SimdAes                      0      0.00%     68.24% # Class of committed instruction
system.cpu.op_class_0::SimdAesMix                   0      0.00%     68.24% # Class of committed instruction
system.cpu.op_class_0::SimdSha1Hash                 0      0.00%     68.24% # Class of committed instruction
system.cpu.op_class_0::SimdSha1Hash2                0      0.00%     68.24% # Class of committed instruction
system.cpu.op_class_0::SimdSha256Hash               0      0.00%     68.24% # Class of committed instruction
system.cpu.op_class_0::SimdSha256Hash2              0      0.00%     68.24% # Class of committed instruction
system.cpu.op_class_0::SimdShaSigma2                0      0.00%     68.24% # Class of committed instruction
system.cpu.op_class_0::SimdShaSigma3                0      0.00%     68.24% # Class of committed instruction
system.cpu.op_class_0::SimdPredAlu                  0      0.00%     68.24% # Class of committed instruction
system.cpu.op_class_0::MemRead               20226496     18.51%     86.75% # Class of committed instruction
system.cpu.op_class_0::MemWrite              14482594     13.25%    100.00% # Class of committed instruction
system.cpu.op_class_0::FloatMemRead                 0      0.00%    100.00% # Class of committed instruction
system.cpu.op_class_0::FloatMemWrite                0      0.00%    100.00% # Class of committed instruction
system.cpu.op_class_0::IprAccess                    0      0.00%    100.00% # Class of committed instruction
system.cpu.op_class_0::InstPrefetch                 0      0.00%    100.00% # Class of committed instruction
system.cpu.op_class_0::total                109288770                       # Class of committed instruction
system.cpu.pwrStateResidencyTicks::ON     28976985250                       # Cumulative time (in ticks) in various power states
system.cpu.tickCycles                       110530735                       # Number of cycles that the object actually ticked
system.cpu.workload.numSyscalls                    85                       # Number of system calls
system.cpu_clk_domain.clock                       250                       # Clock period in ticks
system.cpu_voltage_domain.voltage                   1                       # Voltage in Volts
system.l2.CleanEvict_mshr_miss_rate::.writebacks          inf                       # mshr miss rate for CleanEvict accesses
system.l2.CleanEvict_mshr_miss_rate::total          inf                       # mshr miss rate for CleanEvict accesses
system.l2.CleanEvict_mshr_misses::.writebacks            1                       # number of CleanEvict MSHR misses
system.l2.CleanEvict_mshr_misses::total             1                       # number of CleanEvict MSHR misses
system.l2.ReadCleanReq_accesses::.cpu.inst         1057                       # number of ReadCleanReq accesses(hits+misses)
system.l2.ReadCleanReq_accesses::total           1057                       # number of ReadCleanReq accesses(hits+misses)
system.l2.ReadCleanReq_avg_miss_latency::.cpu.inst 65511.523046                       # average ReadCleanReq miss latency
system.l2.ReadCleanReq_avg_miss_latency::total 65511.523046                       # average ReadCleanReq miss latency
system.l2.ReadCleanReq_avg_mshr_miss_latency::.cpu.inst 60511.523046                       # average ReadCleanReq mshr miss latency
system.l2.ReadCleanReq_avg_mshr_miss_latency::total 60511.523046                       # average ReadCleanReq mshr miss latency
system.l2.ReadCleanReq_hits::.cpu.inst            558                       # number of ReadCleanReq hits
system.l2.ReadCleanReq_hits::total                558                       # number of ReadCleanReq hits
system.l2.ReadCleanReq_miss_latency::.cpu.inst     32690250                       # number of ReadCleanReq miss cycles
system.l2.ReadCleanReq_miss_latency::total     32690250                       # number of ReadCleanReq miss cycles
system.l2.ReadCleanReq_miss_rate::.cpu.inst     0.472091                       # miss rate for ReadCleanReq accesses
system.l2.ReadCleanReq_miss_rate::total      0.472091                       # miss rate for ReadCleanReq accesses
system.l2.ReadCleanReq_misses::.cpu.inst          499                       # number of ReadCleanReq misses
system.l2.ReadCleanReq_misses::total              499                       # number of ReadCleanReq misses
system.l2.ReadCleanReq_mshr_miss_latency::.cpu.inst     30195250                       # number of ReadCleanReq MSHR miss cycles
system.l2.ReadCleanReq_mshr_miss_latency::total     30195250                       # number of ReadCleanReq MSHR miss cycles
system.l2.ReadCleanReq_mshr_miss_rate::.cpu.inst     0.472091                       # mshr miss rate for ReadCleanReq accesses
system.l2.ReadCleanReq_mshr_miss_rate::total     0.472091                       # mshr miss rate for ReadCleanReq accesses
system.l2.ReadCleanReq_mshr_misses::.cpu.inst          499                       # number of ReadCleanReq MSHR misses
system.l2.ReadCleanReq_mshr_misses::total          499                       # number of ReadCleanReq MSHR misses
system.l2.ReadExReq_accesses::.cpu.data         38480                       # number of ReadExReq accesses(hits+misses)
system.l2.ReadExReq_accesses::total             38480                       # number of ReadExReq accesses(hits+misses)
system.l2.ReadExReq_avg_miss_latency::.cpu.data 65410.560823                       # average ReadExReq miss latency
system.l2.ReadExReq_avg_miss_latency::total 65410.560823                       # average ReadExReq miss latency
system.l2.ReadExReq_avg_mshr_miss_latency::.cpu.data 60410.560823                       # average ReadExReq mshr miss latency
system.l2.ReadExReq_avg_mshr_miss_latency::total 60410.560823                       # average ReadExReq mshr miss latency
system.l2.ReadExReq_hits::.cpu.data               197                       # number of ReadExReq hits
system.l2.ReadExReq_hits::total                   197                       # number of ReadExReq hits
system.l2.ReadExReq_miss_latency::.cpu.data   2504112500                       # number of ReadExReq miss cycles
system.l2.ReadExReq_miss_latency::total    2504112500                       # number of ReadExReq miss cycles
system.l2.ReadExReq_miss_rate::.cpu.data     0.994880                       # miss rate for ReadExReq accesses
system.l2.ReadExReq_miss_rate::total         0.994880                       # miss rate for ReadExReq accesses
system.l2.ReadExReq_misses::.cpu.data           38283                       # number of ReadExReq misses
system.l2.ReadExReq_misses::total               38283                       # number of ReadExReq misses
system.l2.ReadExReq_mshr_miss_latency::.cpu.data   2312697500                       # number of ReadExReq MSHR miss cycles
system.l2.ReadExReq_mshr_miss_latency::total   2312697500                       # number of ReadExReq MSHR miss cycles
system.l2.ReadExReq_mshr_miss_rate::.cpu.data     0.994880                       # mshr miss rate for ReadExReq accesses
system.l2.ReadExReq_mshr_miss_rate::total     0.994880                       # mshr miss rate for ReadExReq accesses
system.l2.ReadExReq_mshr_misses::.cpu.data        38283                       # number of ReadExReq MSHR misses
system.l2.ReadExReq_mshr_misses::total          38283                       # number of ReadExReq MSHR misses
system.l2.ReadSharedReq_accesses::.cpu.data        16351                       # number of ReadSharedReq accesses(hits+misses)
system.l2.ReadSharedReq_accesses::total         16351                       # number of ReadSharedReq accesses(hits+misses)
system.l2.ReadSharedReq_avg_miss_latency::.cpu.data 74649.761337                       # average ReadSharedReq miss latency
system.l2.ReadSharedReq_avg_miss_latency::total 74649.761337                       # average ReadSharedReq miss latency
system.l2.ReadSharedReq_avg_mshr_miss_latency::.cpu.data 69859.903382                       # average ReadSharedReq mshr miss latency
system.l2.ReadSharedReq_avg_mshr_miss_latency::total 69859.903382                       # average ReadSharedReq mshr miss latency
system.l2.ReadSharedReq_hits::.cpu.data         15932                       # number of ReadSharedReq hits
system.l2.ReadSharedReq_hits::total             15932                       # number of ReadSharedReq hits
system.l2.ReadSharedReq_miss_latency::.cpu.data     31278250                       # number of ReadSharedReq miss cycles
system.l2.ReadSharedReq_miss_latency::total     31278250                       # number of ReadSharedReq miss cycles
system.l2.ReadSharedReq_miss_rate::.cpu.data     0.025625                       # miss rate for ReadSharedReq accesses
system.l2.ReadSharedReq_miss_rate::total     0.025625                       # miss rate for ReadSharedReq accesses
system.l2.ReadSharedReq_misses::.cpu.data          419                       # number of ReadSharedReq misses
system.l2.ReadSharedReq_misses::total             419                       # number of ReadSharedReq misses
system.l2.ReadSharedReq_mshr_hits::.cpu.data            5                       # number of ReadSharedReq MSHR hits
system.l2.ReadSharedReq_mshr_hits::total            5                       # number of ReadSharedReq MSHR hits
system.l2.ReadSharedReq_mshr_miss_latency::.cpu.data     28922000                       # number of ReadSharedReq MSHR miss cycles
system.l2.ReadSharedReq_mshr_miss_latency::total     28922000                       # number of ReadSharedReq MSHR miss cycles
system.l2.ReadSharedReq_mshr_miss_rate::.cpu.data     0.025320                       # mshr miss rate for ReadSharedReq accesses
system.l2.ReadSharedReq_mshr_miss_rate::total     0.025320                       # mshr miss rate for ReadSharedReq accesses
system.l2.ReadSharedReq_mshr_misses::.cpu.data          414                       # number of ReadSharedReq MSHR misses
system.l2.ReadSharedReq_mshr_misses::total          414                       # number of ReadSharedReq MSHR misses
system.l2.WritebackClean_accesses::.writebacks          668                       # number of WritebackClean accesses(hits+misses)
system.l2.WritebackClean_accesses::total          668                       # number of WritebackClean accesses(hits+misses)
system.l2.WritebackClean_hits::.writebacks          668                       # number of WritebackClean hits
system.l2.WritebackClean_hits::total              668                       # number of WritebackClean hits
system.l2.WritebackDirty_accesses::.writebacks        49994                       # number of WritebackDirty accesses(hits+misses)
system.l2.WritebackDirty_accesses::total        49994                       # number of WritebackDirty accesses(hits+misses)
system.l2.WritebackDirty_hits::.writebacks        49994                       # number of WritebackDirty hits
system.l2.WritebackDirty_hits::total            49994                       # number of WritebackDirty hits
system.l2.avg_blocked_cycles::no_mshrs            nan                       # average number of cycles each access was blocked
system.l2.avg_blocked_cycles::no_targets          nan                       # average number of cycles each access was blocked
system.l2.blocked::no_mshrs                         0                       # number of cycles access was blocked
system.l2.blocked::no_targets                       0                       # number of cycles access was blocked
system.l2.blocked_cycles::no_mshrs                  0                       # number of cycles access was blocked
system.l2.blocked_cycles::no_targets                0                       # number of cycles access was blocked
system.l2.demand_accesses::.cpu.inst             1057                       # number of demand (read+write) accesses
system.l2.demand_accesses::.cpu.data            54831                       # number of demand (read+write) accesses
system.l2.demand_accesses::total                55888                       # number of demand (read+write) accesses
system.l2.demand_avg_miss_latency::.cpu.inst 65511.523046                       # average overall miss latency
system.l2.demand_avg_miss_latency::.cpu.data 65510.587308                       # average overall miss latency
system.l2.demand_avg_miss_latency::total 65510.599219                       # average overall miss latency
system.l2.demand_avg_mshr_miss_latency::.cpu.inst 60511.523046                       # average overall mshr miss latency
system.l2.demand_avg_mshr_miss_latency::.cpu.data 60511.654650                       # average overall mshr miss latency
system.l2.demand_avg_mshr_miss_latency::total 60511.652975                       # average overall mshr miss latency
system.l2.demand_hits::.cpu.inst                  558                       # number of demand (read+write) hits
system.l2.demand_hits::.cpu.data                16129                       # number of demand (read+write) hits
system.l2.demand_hits::total                    16687                       # number of demand (read+write) hits
system.l2.demand_miss_latency::.cpu.inst     32690250                       # number of demand (read+write) miss cycles
system.l2.demand_miss_latency::.cpu.data   2535390750                       # number of demand (read+write) miss cycles
system.l2.demand_miss_latency::total       2568081000                       # number of demand (read+write) miss cycles
system.l2.demand_miss_rate::.cpu.inst        0.472091                       # miss rate for demand accesses
system.l2.demand_miss_rate::.cpu.data        0.705842                       # miss rate for demand accesses
system.l2.demand_miss_rate::total            0.701421                       # miss rate for demand accesses
system.l2.demand_misses::.cpu.inst                499                       # number of demand (read+write) misses
system.l2.demand_misses::.cpu.data              38702                       # number of demand (read+write) misses
system.l2.demand_misses::total                  39201                       # number of demand (read+write) misses
system.l2.demand_mshr_hits::.cpu.data               5                       # number of demand (read+write) MSHR hits
system.l2.demand_mshr_hits::total                   5                       # number of demand (read+write) MSHR hits
system.l2.demand_mshr_miss_latency::.cpu.inst     30195250                       # number of demand (read+write) MSHR miss cycles
system.l2.demand_mshr_miss_latency::.cpu.data   2341619500                       # number of demand (read+write) MSHR miss cycles
system.l2.demand_mshr_miss_latency::total   2371814750                       # number of demand (read+write) MSHR miss cycles
system.l2.demand_mshr_miss_rate::.cpu.inst     0.472091                       # mshr miss rate for demand accesses
system.l2.demand_mshr_miss_rate::.cpu.data     0.705750                       # mshr miss rate for demand accesses
system.l2.demand_mshr_miss_rate::total       0.701331                       # mshr miss rate for demand accesses
system.l2.demand_mshr_misses::.cpu.inst           499                       # number of demand (read+write) MSHR misses
system.l2.demand_mshr_misses::.cpu.data         38697                       # number of demand (read+write) MSHR misses
system.l2.demand_mshr_misses::total             39196                       # number of demand (read+write) MSHR misses
system.l2.overall_accesses::.cpu.inst            1057                       # number of overall (read+write) accesses
system.l2.overall_accesses::.cpu.data           54831                       # number of overall (read+write) accesses
system.l2.overall_accesses::total               55888                       # number of overall (read+write) accesses
system.l2.overall_avg_miss_latency::.cpu.inst 65511.523046                       # average overall miss latency
system.l2.overall_avg_miss_latency::.cpu.data 65510.587308                       # average overall miss latency
system.l2.overall_avg_miss_latency::total 65510.599219                       # average overall miss latency
system.l2.overall_avg_mshr_miss_latency::.cpu.inst 60511.523046                       # average overall mshr miss latency
system.l2.overall_avg_mshr_miss_latency::.cpu.data 60511.654650                       # average overall mshr miss latency
system.l2.overall_avg_mshr_miss_latency::total 60511.652975                       # average overall mshr miss latency
system.l2.overall_hits::.cpu.inst                 558                       # number of overall hits
system.l2.overall_hits::.cpu.data               16129                       # number of overall hits
system.l2.overall_hits::total                   16687                       # number of overall hits
system.l2.overall_miss_latency::.cpu.inst     32690250                       # number of overall miss cycles
system.l2.overall_miss_latency::.cpu.data   2535390750                       # number of overall miss cycles
system.l2.overall_miss_latency::total      2568081000                       # number of overall miss cycles
system.l2.overall_miss_rate::.cpu.inst       0.472091                       # miss rate for overall accesses
system.l2.overall_miss_rate::.cpu.data       0.705842                       # miss rate for overall accesses
system.l2.overall_miss_rate::total           0.701421                       # miss rate for overall accesses
system.l2.overall_misses::.cpu.inst               499                       # number of overall misses
system.l2.overall_misses::.cpu.data             38702                       # number of overall misses
system.l2.overall_misses::total                 39201                       # number of overall misses
system.l2.overall_mshr_hits::.cpu.data              5                       # number of overall MSHR hits
system.l2.overall_mshr_hits::total                  5                       # number of overall MSHR hits
system.l2.overall_mshr_miss_latency::.cpu.inst     30195250                       # number of overall MSHR miss cycles
system.l2.overall_mshr_miss_latency::.cpu.data   2341619500                       # number of overall MSHR miss cycles
system.l2.overall_mshr_miss_latency::total   2371814750                       # number of overall MSHR miss cycles
system.l2.overall_mshr_miss_rate::.cpu.inst     0.472091                       # mshr miss rate for overall accesses
system.l2.overall_mshr_miss_rate::.cpu.data     0.705750                       # mshr miss rate for overall accesses
system.l2.overall_mshr_miss_rate::total      0.701331                       # mshr miss rate for overall accesses
system.l2.overall_mshr_misses::.cpu.inst          499                       # number of overall MSHR misses
system.l2.overall_mshr_misses::.cpu.data        38697                       # number of overall MSHR misses
system.l2.overall_mshr_misses::total            39196                       # number of overall MSHR misses
system.l2.pwrStateResidencyTicks::UNDEFINED  28976985250                       # Cumulative time (in ticks) in various power states
system.l2.replacements                           6430                       # number of replacements
system.l2.tags.age_task_id_blocks_1024::0            8                       # Occupied blocks per task id
system.l2.tags.age_task_id_blocks_1024::1           70                       # Occupied blocks per task id
system.l2.tags.age_task_id_blocks_1024::2          734                       # Occupied blocks per task id
system.l2.tags.age_task_id_blocks_1024::3         6984                       # Occupied blocks per task id
system.l2.tags.age_task_id_blocks_1024::4        24972                       # Occupied blocks per task id
system.l2.tags.avg_refs                      2.814455                       # Average number of references to valid blocks.
system.l2.tags.data_accesses                   921814                       # Number of data accesses
system.l2.tags.occ_blocks::.writebacks       0.066593                       # Average occupied blocks per requestor
system.l2.tags.occ_blocks::.cpu.inst       318.201655                       # Average occupied blocks per requestor
system.l2.tags.occ_blocks::.cpu.data     25271.363587                       # Average occupied blocks per requestor
system.l2.tags.occ_percent::.writebacks      0.000002                       # Average percentage of cache occupancy
system.l2.tags.occ_percent::.cpu.inst        0.009711                       # Average percentage of cache occupancy
system.l2.tags.occ_percent::.cpu.data        0.771221                       # Average percentage of cache occupancy
system.l2.tags.occ_percent::total            0.780934                       # Average percentage of cache occupancy
system.l2.tags.occ_task_id_blocks::1024         32768                       # Occupied blocks per task id
system.l2.tags.occ_task_id_percent::1024            1                       # Percentage of cache occupancy per task id
system.l2.tags.pwrStateResidencyTicks::UNDEFINED  28976985250                       # Cumulative time (in ticks) in various power states
system.l2.tags.sampled_refs                     39198                       # Sample count of references to valid blocks.
system.l2.tags.tag_accesses                    921814                       # Number of tag accesses
system.l2.tags.tagsinuse                 25589.631835                       # Cycle average of tags in use
system.l2.tags.total_refs                      110321                       # Total number of references to valid blocks.
system.l2.tags.warmup_cycle                     77000                       # Cycle when the warmup percentage was hit.
system.l2.writebacks::.writebacks                5894                       # number of writebacks
system.l2.writebacks::total                      5894                       # number of writebacks
system.mem_ctrls.avgBusLat                    5000.00                       # Average bus latency per DRAM burst
system.mem_ctrls.avgGap                     642629.83                       # Average gap between requests
system.mem_ctrls.avgMemAccLat                24624.86                       # Average memory access latency per DRAM burst
system.mem_ctrls.avgPriority_.writebacks::samples      5894.00                       # Average QoS priority value for accepted requests
system.mem_ctrls.avgPriority_.cpu.inst::samples       499.00                       # Average QoS priority value for accepted requests
system.mem_ctrls.avgPriority_.cpu.data::samples     38696.00                       # Average QoS priority value for accepted requests
system.mem_ctrls.avgQLat                      5874.86                       # Average queueing delay per DRAM burst
system.mem_ctrls.avgRdBW                        86.57                       # Average DRAM read bandwidth in MiByte/s
system.mem_ctrls.avgRdBWSys                     86.57                       # Average system read bandwidth in MiByte/s
system.mem_ctrls.avgRdQLen                       1.00                       # Average read queue length when enqueuing
system.mem_ctrls.avgWrBW                        12.97                       # Average achieved write bandwidth in MiByte/s
system.mem_ctrls.avgWrBWSys                     13.02                       # Average system write bandwidth in MiByte/s
system.mem_ctrls.avgWrQLen                      12.50                       # Average write queue length when enqueuing
system.mem_ctrls.busUtil                         0.78                       # Data bus utilization in percentage
system.mem_ctrls.busUtilRead                     0.68                       # Data bus utilization in percentage for reads
system.mem_ctrls.busUtilWrite                    0.10                       # Data bus utilization in percentage for writes
system.mem_ctrls.bw_inst_read::.cpu.inst      1102116                       # Instruction read bandwidth from this memory (bytes/s)
system.mem_ctrls.bw_inst_read::total          1102116                       # Instruction read bandwidth from this memory (bytes/s)
system.mem_ctrls.bw_read::.cpu.inst           1102116                       # Total read bandwidth from this memory (bytes/s)
system.mem_ctrls.bw_read::.cpu.data          85468104                       # Total read bandwidth from this memory (bytes/s)
system.mem_ctrls.bw_read::total              86570220                       # Total read bandwidth from this memory (bytes/s)
system.mem_ctrls.bw_total::.writebacks       13017779                       # Total bandwidth to/from this memory (bytes/s)
system.mem_ctrls.bw_total::.cpu.inst          1102116                       # Total bandwidth to/from this memory (bytes/s)
system.mem_ctrls.bw_total::.cpu.data         85468104                       # Total bandwidth to/from this memory (bytes/s)
system.mem_ctrls.bw_total::total             99588000                       # Total bandwidth to/from this memory (bytes/s)
system.mem_ctrls.bw_write::.writebacks       13017779                       # Write bandwidth from this memory (bytes/s)
system.mem_ctrls.bw_write::total             13017779                       # Write bandwidth from this memory (bytes/s)
system.mem_ctrls.bytesPerActivate::samples         7768                       # Bytes accessed per row activation
system.mem_ctrls.bytesPerActivate::mean    371.279094                       # Bytes accessed per row activation
system.mem_ctrls.bytesPerActivate::gmean   268.503163                       # Bytes accessed per row activation
system.mem_ctrls.bytesPerActivate::stdev   268.151032                       # Bytes accessed per row activation
system.mem_ctrls.bytesPerActivate::0-127         1610     20.73%     20.73% # Bytes accessed per row activation
system.mem_ctrls.bytesPerActivate::128-255          974     12.54%     33.26% # Bytes accessed per row activation
system.mem_ctrls.bytesPerActivate::256-383          638      8.21%     41.48% # Bytes accessed per row activation
system.mem_ctrls.bytesPerActivate::384-511         2696     34.71%     76.18% # Bytes accessed per row activation
system.mem_ctrls.bytesPerActivate::512-639          578      7.44%     83.63% # Bytes accessed per row activation
system.mem_ctrls.bytesPerActivate::640-767          543      6.99%     90.62% # Bytes accessed per row activation
system.mem_ctrls.bytesPerActivate::768-895           49      0.63%     91.25% # Bytes accessed per row activation
system.mem_ctrls.bytesPerActivate::896-1023           95      1.22%     92.47% # Bytes accessed per row activation
system.mem_ctrls.bytesPerActivate::1024-1151          585      7.53%    100.00% # Bytes accessed per row activation
system.mem_ctrls.bytesPerActivate::total         7768                       # Bytes accessed per row activation
system.mem_ctrls.bytesReadDRAM                2508480                       # Total number of bytes read from DRAM
system.mem_ctrls.bytesReadSys                 2508544                       # Total read bytes from the system interface side
system.mem_ctrls.bytesReadWrQ                      64                       # Total number of bytes read from write queue
system.mem_ctrls.bytesWritten                  375872                       # Total number of bytes written to DRAM
system.mem_ctrls.bytesWrittenSys               377216                       # Total written bytes from the system interface side
system.mem_ctrls.bytes_inst_read::.cpu.inst        31936                       # Number of instructions bytes read from this memory
system.mem_ctrls.bytes_inst_read::total         31936                       # Number of instructions bytes read from this memory
system.mem_ctrls.bytes_read::.cpu.inst          31936                       # Number of bytes read from this memory
system.mem_ctrls.bytes_read::.cpu.data        2476608                       # Number of bytes read from this memory
system.mem_ctrls.bytes_read::total            2508544                       # Number of bytes read from this memory
system.mem_ctrls.bytes_written::.writebacks       377216                       # Number of bytes written to this memory
system.mem_ctrls.bytes_written::total          377216                       # Number of bytes written to this memory
system.mem_ctrls.masterReadAccesses::.cpu.inst          499                       # Per-master read serviced memory accesses
system.mem_ctrls.masterReadAccesses::.cpu.data        38697                       # Per-master read serviced memory accesses
system.mem_ctrls.masterReadAvgLat::.cpu.inst     24793.09                       # Per-master read average memory access latency
system.mem_ctrls.masterReadAvgLat::.cpu.data     24622.06                       # Per-master read average memory access latency
system.mem_ctrls.masterReadBytes::.cpu.inst        31936                       # Per-master bytes read from memory
system.mem_ctrls.masterReadBytes::.cpu.data      2476544                       # Per-master bytes read from memory
system.mem_ctrls.masterReadRate::.cpu.inst 1102116.031894656830                       # Per-master bytes read from memory rate (Bytes/sec)
system.mem_ctrls.masterReadRate::.cpu.data 85465895.731854990125                       # Per-master bytes read from memory rate (Bytes/sec)
system.mem_ctrls.masterReadTotalLat::.cpu.inst     12371750                       # Per-master read total memory access latency
system.mem_ctrls.masterReadTotalLat::.cpu.data    952799750                       # Per-master read total memory access latency
system.mem_ctrls.masterWriteAccesses::.writebacks         5894                       # Per-master write serviced memory accesses
system.mem_ctrls.masterWriteAvgLat::.writebacks  60106892.26                       # Per-master write average memory access latency
[...]
system.mem_ctrls.wrQLenPdf::21                    326                       # What write queue length does an incoming req see
system.mem_ctrls.wrQLenPdf::22                    326                       # What write queue length does an incoming req see
system.mem_ctrls.wrQLenPdf::23                    326                       # What write queue length does an incoming req see
system.mem_ctrls.wrQLenPdf::24                    326                       # What write queue length does an incoming req see
system.mem_ctrls.wrQLenPdf::25                    327                       # What write queue length does an incoming req see
system.mem_ctrls.wrQLenPdf::26                    327                       # What write queue length does an incoming req see
system.mem_ctrls.wrQLenPdf::27                    328                       # What write queue length does an incoming req see
system.mem_ctrls.wrQLenPdf::28                    327                       # What write queue length does an incoming req see
system.mem_ctrls.wrQLenPdf::29                    327                       # What write queue length does an incoming req see
system.mem_ctrls.wrQLenPdf::30                    327                       # What write queue length does an incoming req see
system.mem_ctrls.wrQLenPdf::31                    326                       # What write queue length does an incoming req see
system.mem_ctrls.wrQLenPdf::32                    326                       # What write queue length does an incoming req see
system.mem_ctrls.wrQLenPdf::33                      0                       # What write queue length does an incoming req see
system.mem_ctrls.wrQLenPdf::34                      0                       # What write queue length does an incoming req see
system.mem_ctrls.wrQLenPdf::35                      0                       # What write queue length does an incoming req see
system.mem_ctrls.wrQLenPdf::36                      0                       # What write queue length does an incoming req see
system.mem_ctrls.wrQLenPdf::37                      0                       # What write queue length does an incoming req see
system.mem_ctrls.wrQLenPdf::38                      0                       # What write queue length does an incoming req see
system.mem_ctrls.wrQLenPdf::39                      0                       # What write queue length does an incoming req see
system.mem_ctrls.wrQLenPdf::40                      0                       # What write queue length does an incoming req see
system.mem_ctrls.wrQLenPdf::41                      0                       # What write queue length does an incoming req see
system.mem_ctrls.wrQLenPdf::42                      0                       # What write queue length does an incoming req see
system.mem_ctrls.wrQLenPdf::43                      0                       # What write queue length does an incoming req see
system.mem_ctrls.wrQLenPdf::44                      0                       # What write queue length does an incoming req see
system.mem_ctrls.wrQLenPdf::45                      0                       # What write queue length does an incoming req see
system.mem_ctrls.wrQLenPdf::46                      0                       # What write queue length does an incoming req see
system.mem_ctrls.wrQLenPdf::47                      0                       # What write queue length does an incoming req see
system.mem_ctrls.wrQLenPdf::48                      0                       # What write queue length does an incoming req see
system.mem_ctrls.wrQLenPdf::49                      0                       # What write queue length does an incoming req see
system.mem_ctrls.wrQLenPdf::50                      0                       # What write queue length does an incoming req see
system.mem_ctrls.wrQLenPdf::51                      0                       # What write queue length does an incoming req see
system.mem_ctrls.wrQLenPdf::52                      0                       # What write queue length does an incoming req see
system.mem_ctrls.wrQLenPdf::53                      0                       # What write queue length does an incoming req see
system.mem_ctrls.wrQLenPdf::54                      0                       # What write queue length does an incoming req see
system.mem_ctrls.wrQLenPdf::55                      0                       # What write queue length does an incoming req see
system.mem_ctrls.wrQLenPdf::56                      0                       # What write queue length does an incoming req see
system.mem_ctrls.wrQLenPdf::57                      0                       # What write queue length does an incoming req see
system.mem_ctrls.wrQLenPdf::58                      0                       # What write queue length does an incoming req see
system.mem_ctrls.wrQLenPdf::59                      0                       # What write queue length does an incoming req see
system.mem_ctrls.wrQLenPdf::60                      0                       # What write queue length does an incoming req see
system.mem_ctrls.wrQLenPdf::61                      0                       # What write queue length does an incoming req see
system.mem_ctrls.wrQLenPdf::62                      0                       # What write queue length does an incoming req see
system.mem_ctrls.wrQLenPdf::63                      0                       # What write queue length does an incoming req see
system.mem_ctrls.writeBursts                     5894                       # Number of DRAM write bursts, including those merged in the write queue
system.mem_ctrls.writePktSize::0                    0                       # Write request sizes (log2)
system.mem_ctrls.writePktSize::1                    0                       # Write request sizes (log2)
system.mem_ctrls.writePktSize::2                    0                       # Write request sizes (log2)
system.mem_ctrls.writePktSize::3                    0                       # Write request sizes (log2)
system.mem_ctrls.writePktSize::4                    0                       # Write request sizes (log2)
system.mem_ctrls.writePktSize::5                    0                       # Write request sizes (log2)
system.mem_ctrls.writePktSize::6                 5894                       # Write request sizes (log2)
system.mem_ctrls.writeReqs                       5894                       # Number of write requests accepted
system.mem_ctrls.writeRowHitRate                85.24                       # Row buffer hit rate for writes
system.mem_ctrls.writeRowHits                    5024                       # Number of row buffer hits during writes
system.mem_ctrls_0.actBackEnergy           7387804770                       # Energy for active background per rank (pJ)
system.mem_ctrls_0.actEnergy                 29659560                       # Energy for activate commands per rank (pJ)
system.mem_ctrls_0.actPowerDownEnergy               0                       # Energy for active power-down per rank (pJ)
system.mem_ctrls_0.averagePower            510.248118                       # Core power per rank (mW)
system.mem_ctrls_0.memoryStateTime::IDLE  12682257500                       # Time in different power states
system.mem_ctrls_0.memoryStateTime::REF     967460000                       # Time in different power states
system.mem_ctrls_0.memoryStateTime::SREF            0                       # Time in different power states
system.mem_ctrls_0.memoryStateTime::PRE_PDN            0                       # Time in different power states
system.mem_ctrls_0.memoryStateTime::ACT   15327267750                       # Time in different power states
system.mem_ctrls_0.memoryStateTime::ACT_PDN            0                       # Time in different power states
system.mem_ctrls_0.preBackEnergy           4905853440                       # Energy for precharge background per rank (pJ)
system.mem_ctrls_0.preEnergy                 15764430                       # Energy for precharge commands per rank (pJ)
system.mem_ctrls_0.prePowerDownEnergy               0                       # Energy for precharge power-down per rank (pJ)
system.mem_ctrls_0.readEnergy               142428720                       # Energy for read commands per rank (pJ)
system.mem_ctrls_0.refreshEnergy         2287075440.000000                       # Energy for refresh commands per rank (pJ)
system.mem_ctrls_0.selfRefreshEnergy                0                       # Energy for self refresh per rank (pJ)
system.mem_ctrls_0.totalEnergy            14785452180                       # Total energy per rank (pJ)
system.mem_ctrls_0.totalIdleTime                    0                       # Total Idle time Per DRAM Rank
system.mem_ctrls_0.writeEnergy               16865820                       # Energy for write commands per rank (pJ)
system.mem_ctrls_1.actBackEnergy           7471286970                       # Energy for active background per rank (pJ)
system.mem_ctrls_1.actEnergy                 25818240                       # Energy for activate commands per rank (pJ)
system.mem_ctrls_1.actPowerDownEnergy               0                       # Energy for active power-down per rank (pJ)
system.mem_ctrls_1.averagePower            510.220891                       # Core power per rank (mW)
system.mem_ctrls_1.memoryStateTime::IDLE  12501848250                       # Time in different power states
system.mem_ctrls_1.memoryStateTime::REF     967460000                       # Time in different power states
system.mem_ctrls_1.memoryStateTime::SREF            0                       # Time in different power states
system.mem_ctrls_1.memoryStateTime::PRE_PDN            0                       # Time in different power states
system.mem_ctrls_1.memoryStateTime::ACT   15507677000                       # Time in different power states
system.mem_ctrls_1.memoryStateTime::ACT_PDN            0                       # Time in different power states
system.mem_ctrls_1.preBackEnergy           4835552640                       # Energy for precharge background per rank (pJ)
system.mem_ctrls_1.preEnergy                 13715130                       # Energy for precharge commands per rank (pJ)
system.mem_ctrls_1.prePowerDownEnergy               0                       # Energy for precharge power-down per rank (pJ)
system.mem_ctrls_1.readEnergy               137423580                       # Energy for read commands per rank (pJ)
system.mem_ctrls_1.refreshEnergy         2287075440.000000                       # Energy for refresh commands per rank (pJ)
system.mem_ctrls_1.selfRefreshEnergy                0                       # Energy for self refresh per rank (pJ)
system.mem_ctrls_1.totalEnergy            14784663240                       # Total energy per rank (pJ)
system.mem_ctrls_1.totalIdleTime                    0                       # Total Idle time Per DRAM Rank
system.mem_ctrls_1.writeEnergy               13791240                       # Energy for write commands per rank (pJ)
system.membus.pkt_count_system.l2.mem_side::system.mem_ctrls.port        84441                       # Packet count per connected master and slave (bytes)
system.membus.pkt_count::total                  84441                       # Packet count per connected master and slave (bytes)
system.membus.pkt_size_system.l2.mem_side::system.mem_ctrls.port      2885760                       # Cumulative packet size per connected master and slave (bytes)
system.membus.pkt_size::total                 2885760                       # Cumulative packet size per connected master and slave (bytes)
system.membus.pwrStateResidencyTicks::UNDEFINED  28976985250                       # Cumulative time (in ticks) in various power states
system.membus.reqLayer0.occupancy            81982498                       # Layer occupancy (ticks)
system.membus.reqLayer0.utilization               0.3                       # Layer utilization (%)
system.membus.respLayer1.occupancy          207773250                       # Layer occupancy (ticks)
system.membus.respLayer1.utilization              0.7                       # Layer utilization (%)
system.membus.snoopTraffic                          0                       # Total snoop traffic (bytes)
system.membus.snoop_fanout::samples             39196                       # Request fanout histogram
system.membus.snoop_fanout::mean                    0                       # Request fanout histogram
system.membus.snoop_fanout::stdev                   0                       # Request fanout histogram
system.membus.snoop_fanout::underflows              0      0.00%      0.00% # Request fanout histogram
system.membus.snoop_fanout::0                   39196    100.00%    100.00% # Request fanout histogram
system.membus.snoop_fanout::1                       0      0.00%    100.00% # Request fanout histogram
system.membus.snoop_fanout::overflows               0      0.00%    100.00% # Request fanout histogram
system.membus.snoop_fanout::min_value               0                       # Request fanout histogram
system.membus.snoop_fanout::max_value               0                       # Request fanout histogram
system.membus.snoop_fanout::total               39196                       # Request fanout histogram
system.membus.snoop_filter.hit_multi_requests            0                       # Number of requests hitting in the snoop filter with multiple (>1) holders of the requested data.
system.membus.snoop_filter.hit_multi_snoops            0                       # Number of snoops hitting in the snoop filter with multiple (>1) holders of the requested data.
system.membus.snoop_filter.hit_single_requests         6049                       # Number of requests hitting in the snoop filter with a single holder of the requested data.
system.membus.snoop_filter.hit_single_snoops            0                       # Number of snoops hitting in the snoop filter with a single holder of the requested data.
system.membus.snoop_filter.tot_requests         45245                       # Total number of requests made to the snoop filter.
system.membus.snoop_filter.tot_snoops               0                       # Total number of snoops made to the snoop filter.
system.membus.snoops                                0                       # Total snoops (count)
system.membus.trans_dist::ReadResp                913                       # Transaction distribution
system.membus.trans_dist::WritebackDirty         5894                       # Transaction distribution
system.membus.trans_dist::CleanEvict              155                       # Transaction distribution
system.membus.trans_dist::ReadExReq             38283                       # Transaction distribution
system.membus.trans_dist::ReadExResp            38283                       # Transaction distribution
system.membus.trans_dist::ReadSharedReq           913                       # Transaction distribution
system.tol2bus.pkt_count_system.cpu.icache.mem_side::system.l2.cpu_side         2786                       # Packet count per connected master and slave (bytes)
system.tol2bus.pkt_count_system.cpu.dcache.mem_side::system.l2.cpu_side       163469                       # Packet count per connected master and slave (bytes)
system.tol2bus.pkt_count::total                166255                       # Packet count per connected master and slave (bytes)
system.tol2bus.pkt_size_system.cpu.icache.mem_side::system.l2.cpu_side       110656                       # Cumulative packet size per connected master and slave (bytes)
system.tol2bus.pkt_size_system.cpu.dcache.mem_side::system.l2.cpu_side      6708800                       # Cumulative packet size per connected master and slave (bytes)
system.tol2bus.pkt_size::total                6819456                       # Cumulative packet size per connected master and slave (bytes)
system.tol2bus.pwrStateResidencyTicks::UNDEFINED  28976985250                       # Cumulative time (in ticks) in various power states
system.tol2bus.reqLayer0.occupancy           52924750                       # Layer occupancy (ticks)
system.tol2bus.reqLayer0.utilization              0.2                       # Layer utilization (%)
system.tol2bus.respLayer0.occupancy            792750                       # Layer occupancy (ticks)
system.tol2bus.respLayer0.utilization             0.0                       # Layer utilization (%)
system.tol2bus.respLayer1.occupancy          41124495                       # Layer occupancy (ticks)
system.tol2bus.respLayer1.utilization             0.1                       # Layer utilization (%)
system.tol2bus.snoopTraffic                    377216                       # Total snoop traffic (bytes)
system.tol2bus.snoop_fanout::samples            62318                       # Request fanout histogram
system.tol2bus.snoop_fanout::mean            0.006884                       # Request fanout histogram
system.tol2bus.snoop_fanout::stdev           0.083072                       # Request fanout histogram
system.tol2bus.snoop_fanout::underflows             0      0.00%      0.00% # Request fanout histogram
system.tol2bus.snoop_fanout::0                  61891     99.31%     99.31% # Request fanout histogram
system.tol2bus.snoop_fanout::1                    425      0.68%    100.00% # Request fanout histogram
system.tol2bus.snoop_fanout::2                      2      0.00%    100.00% # Request fanout histogram
system.tol2bus.snoop_fanout::overflows              0      0.00%    100.00% # Request fanout histogram
system.tol2bus.snoop_fanout::min_value              0                       # Request fanout histogram
system.tol2bus.snoop_fanout::max_value              2                       # Request fanout histogram
system.tol2bus.snoop_fanout::total              62318                       # Request fanout histogram
system.tol2bus.snoop_filter.hit_multi_requests           40                       # Number of requests hitting in the snoop filter with multiple (>1) holders of the requested data.
system.tol2bus.snoop_filter.hit_multi_snoops            2                       # Number of snoops hitting in the snoop filter with multiple (>1) holders of the requested data.
system.tol2bus.snoop_filter.hit_single_requests        54484                       # Number of requests hitting in the snoop filter with a single holder of the requested data.
system.tol2bus.snoop_filter.hit_single_snoops          380                       # Number of snoops hitting in the snoop filter with a single holder of the requested data.
system.tol2bus.snoop_filter.tot_requests       110367                       # Total number of requests made to the snoop filter.
system.tol2bus.snoop_filter.tot_snoops            382                       # Total number of snoops made to the snoop filter.
system.tol2bus.snoops                            6430                       # Total snoops (count)
system.tol2bus.trans_dist::ReadResp             17408                       # Transaction distribution
system.tol2bus.trans_dist::WritebackDirty        55888                       # Transaction distribution
system.tol2bus.trans_dist::WritebackClean          672                       # Transaction distribution
system.tol2bus.trans_dist::CleanEvict            4349                       # Transaction distribution
system.tol2bus.trans_dist::ReadExReq            38480                       # Transaction distribution
system.tol2bus.trans_dist::ReadExResp           38480                       # Transaction distribution
system.tol2bus.trans_dist::ReadCleanReq          1057                       # Transaction distribution
system.tol2bus.trans_dist::ReadSharedReq        16351                       # Transaction distribution
system.voltage_domain.voltage                       1                       # Voltage in Volts

---------- End Simulation Statistics   ----------
