
---------- Begin Simulation Statistics ----------
final_tick                               262355453000                       # Number of ticks from beginning of simulation (restored from checkpoints and never reset)
host_inst_rate                                 198615                       # Simulator instruction rate (inst/s)
host_mem_usage                                 728620                       # Number of bytes of host memory used
host_op_rate                                   198622                       # Simulator op (including micro ops) rate (op/s)
host_seconds                                   503.49                       # Real time elapsed on the host
host_tick_rate                              521078120                       # Simulator tick rate (ticks/s)
sim_freq                                 1000000000000                       # Frequency of simulated ticks
sim_insts                                   100000000                       # Number of instructions simulated
sim_ops                                     100003445                       # Number of ops (including micro ops) simulated
sim_seconds                                  0.262355                       # Number of seconds simulated
sim_ticks                                262355453000                       # Number of ticks simulated
system.cpu.branchPred.BTBCorrect                    0                       # Number of correct BTB predictions (this stat may not work properly.
system.cpu.branchPred.BTBHitPct             99.529473                       # BTB Hit Percentage
system.cpu.branchPred.BTBHits                  596720                       # Number of BTB hits
system.cpu.branchPred.BTBLookups               599541                       # Number of BTB lookups
system.cpu.branchPred.RASInCorrect                  7                       # Number of incorrect RAS predictions.
system.cpu.branchPred.condIncorrect               843                       # Number of conditional branches incorrect
system.cpu.branchPred.condPredicted            599802                       # Number of conditional branches predicted
system.cpu.branchPred.indirectHits                158                       # Number of indirect target hits.
system.cpu.branchPred.indirectLookups             359                       # Number of indirect predictor lookups.
system.cpu.branchPred.indirectMisses              201                       # Number of indirect misses.
system.cpu.branchPred.lookups                  601814                       # Number of BP lookups
system.cpu.branchPred.usedRAS                     558                       # Number of times the RAS was used to get a target.
system.cpu.branchPredindirectMispredicted          114                       # Number of mispredicted indirect branches.
system.cpu.committedInsts                   100000000                       # Number of instructions committed
system.cpu.committedOps                     100003445                       # Number of ops (including micro ops) committed
system.cpu.cpi                               2.623555                       # CPI: cycles per instruction
system.cpu.discardedOps                          2539                       # Number of ops (including micro ops) which were discarded before commit
system.cpu.dtb.accesses                             0                       # DTB accesses
system.cpu.dtb.align_faults                         0                       # Number of TLB faults due to alignment restrictions
system.cpu.dtb.domain_faults                        0                       # Number of TLB faults due to domain restrictions
system.cpu.dtb.flush_entries                        0                       # Number of entries that have been flushed from TLB
system.cpu.dtb.flush_tlb                            0                       # Number of times complete TLB was flushed
system.cpu.dtb.flush_tlb_asid                       0                       # Number of times TLB was flushed by ASID
system.cpu.dtb.flush_tlb_mva                        0                       # Number of times TLB was flushed by MVA
system.cpu.dtb.flush_tlb_mva_asid                   0                       # Number of times TLB was flushed by MVA & ASID
system.cpu.dtb.hits                                 0                       # DTB hits
system.cpu.dtb.inst_accesses                        0                       # ITB inst accesses
system.cpu.dtb.inst_hits                            0                       # ITB inst hits
system.cpu.dtb.inst_misses                          0                       # ITB inst misses
system.cpu.dtb.misses                               0                       # DTB misses
system.cpu.dtb.perms_faults                         0                       # Number of TLB faults due to permissions restrictions
system.cpu.dtb.prefetch_faults                      0                       # Number of TLB faults due to prefetch
system.cpu.dtb.read_accesses                        0                       # DTB read accesses
system.cpu.dtb.read_hits                            0                       # DTB read hits
system.cpu.dtb.read_misses                          0                       # DTB read misses
system.cpu.dtb.stage2_mmu.stage2_tlb.accesses            0                       # DTB accesses
system.cpu.dtb.stage2_mmu.stage2_tlb.align_faults            0                       # Number of TLB faults due to alignment restrictions
system.cpu.dtb.stage2_mmu.stage2_tlb.domain_faults            0                       # Number of TLB faults due to domain restrictions
system.cpu.dtb.stage2_mmu.stage2_tlb.flush_entries            0                       # Number of entries that have been flushed from TLB
system.cpu.dtb.stage2_mmu.stage2_tlb.flush_tlb            0                       # Number of times complete TLB was flushed
system.cpu.dtb.stage2_mmu.stage2_tlb.flush_tlb_asid            0                       # Number of times TLB was flushed by ASID
system.cpu.dtb.stage2_mmu.stage2_tlb.flush_tlb_mva            0                       # Number of times TLB was flushed by MVA
system.cpu.dtb.stage2_mmu.stage2_tlb.flush_tlb_mva_asid            0                       # Number of times TLB was flushed by MVA & ASID
system.cpu.dtb.stage2_mmu.stage2_tlb.hits            0                       # DTB hits
system.cpu.dtb.stage2_mmu.stage2_tlb.inst_accesses            0                       # ITB inst accesses
system.cpu.dtb.stage2_mmu.stage2_tlb.inst_hits            0                       # ITB inst hits
system.cpu.dtb.stage2_mmu.stage2_tlb.inst_misses            0                       # ITB inst misses
system.cpu.dtb.stage2_mmu.stage2_tlb.misses            0                       # DTB misses
system.cpu.dtb.stage2_mmu.stage2_tlb.perms_faults            0                       # Number of TLB faults due to permissions restrictions
system.cpu.dtb.stage2_mmu.stage2_tlb.prefetch_faults            0                       # Number of TLB faults due to prefetch
system.cpu.dtb.stage2_mmu.stage2_tlb.read_accesses            0                       # DTB read accesses
system.cpu.dtb.stage2_mmu.stage2_tlb.read_hits            0                       # DTB read hits
system.cpu.dtb.stage2_mmu.stage2_tlb.read_misses            0                       # DTB read misses
system.cpu.dtb.stage2_mmu.stage2_tlb.walker.walkRequestOrigin_Requested::Data            0                       # Table walker requests started/completed, data/inst
system.cpu.dtb.stage2_mmu.stage2_tlb.walker.walkRequestOrigin_Requested::Inst            0                       # Table walker requests started/completed, data/inst
system.cpu.dtb.stage2_mmu.stage2_tlb.walker.walkRequestOrigin_Requested::total            0                       # Table walker requests started/completed, data/inst
system.cpu.dtb.stage2_mmu.stage2_tlb.walker.walkRequestOrigin_Completed::Data            0                       # Table walker requests started/completed, data/inst
system.cpu.dtb.stage2_mmu.stage2_tlb.walker.walkRequestOrigin_Completed::Inst            0                       # Table walker requests started/completed, data/inst
system.cpu.dtb.stage2_mmu.stage2_tlb.walker.walkRequestOrigin_Completed::total            0                       # Table walker requests started/completed, data/inst
system.cpu.dtb.stage2_mmu.stage2_tlb.walker.walkRequestOrigin::total            0                       # Table walker requests started/completed, data/inst
system.cpu.dtb.stage2_mmu.stage2_tlb.walker.walks            0                       # Table walker walks requested
system.cpu.dtb.stage2_mmu.stage2_tlb.write_accesses            0                       # DTB write accesses
system.cpu.dtb.stage2_mmu.stage2_tlb.write_hits            0                       # DTB write hits
system.cpu.dtb.stage2_mmu.stage2_tlb.write_misses            0                       # DTB write misses
system.cpu.dtb.walker.walkRequestOrigin_Requested::Data            0                       # Table walker requests started/completed, data/inst
system.cpu.dtb.walker.walkRequestOrigin_Requested::Inst            0                       # Table walker requests started/completed, data/inst
system.cpu.dtb.walker.walkRequestOrigin_Requested::total            0                       # Table walker requests started/completed, data/inst
system.cpu.dtb.walker.walkRequestOrigin_Completed::Data            0                       # Table walker requests started/completed, data/inst
system.cpu.dtb.walker.walkRequestOrigin_Completed::Inst            0                       # Table walker requests started/completed, data/inst
system.cpu.dtb.walker.walkRequestOrigin_Completed::total            0                       # Table walker requests started/completed, data/inst
system.cpu.dtb.walker.walkRequestOrigin::total            0                       # Table walker requests started/completed, data/inst
system.cpu.dtb.walker.walks                         0                       # Table walker walks requested
system.cpu.dtb.write_accesses                       0                       # DTB write accesses
system.cpu.dtb.write_hits                           0                       # DTB write hits
system.cpu.dtb.write_misses                         0                       # DTB write misses
system.cpu.fetch2.amo_instructions                  0                       # Number of memory atomic instructions successfully decoded
system.cpu.fetch2.fp_instructions                   0                       # Number of floating point instructions successfully decoded
system.cpu.fetch2.int_instructions           49411501                       # Number of integer instructions successfully decoded
system.cpu.fetch2.load_instructions          36901060                       # Number of memory load instructions successfully decoded
system.cpu.fetch2.store_instructions         13094319                       # Number of memory store instructions successfully decoded
system.cpu.fetch2.vec_instructions                  0                       # Number of SIMD instructions successfully decoded
system.cpu.idleCycles                       145084349                       # Total number of cycles that the object has spent stopped
system.cpu.ipc                               0.381162                       # IPC: instructions per cycle
system.cpu.itb.accesses                             0                       # DTB accesses
system.cpu.itb.align_faults                         0                       # Number of TLB faults due to alignment restrictions
system.cpu.itb.domain_faults                        0                       # Number of TLB faults due to domain restrictions
system.cpu.itb.flush_entries                        0                       # Number of entries that have been flushed from TLB
system.cpu.itb.flush_tlb                            0                       # Number of times complete TLB was flushed
system.cpu.itb.flush_tlb_asid                       0                       # Number of times TLB was flushed by ASID
system.cpu.itb.flush_tlb_mva                        0                       # Number of times TLB was flushed by MVA
system.cpu.itb.flush_tlb_mva_asid                   0                       # Number of times TLB was flushed by MVA & ASID
system.cpu.itb.hits                                 0                       # DTB hits
system.cpu.itb.inst_accesses                        0                       # ITB inst accesses
system.cpu.itb.inst_hits                            0                       # ITB inst hits
system.cpu.itb.inst_misses                          0                       # ITB inst misses
system.cpu.itb.misses                               0                       # DTB misses
system.cpu.itb.perms_faults                         0                       # Number of TLB faults due to permissions restrictions
system.cpu.itb.prefetch_faults                      0                       # Number of TLB faults due to prefetch
system.cpu.itb.read_accesses                        0                       # DTB read accesses
system.cpu.itb.read_hits                            0                       # DTB read hits
system.cpu.itb.read_misses                          0                       # DTB read misses
system.cpu.itb.stage2_mmu.stage2_tlb.accesses            0                       # DTB accesses
system.cpu.itb.stage2_mmu.stage2_tlb.align_faults            0                       # Number of TLB faults due to alignment restrictions
system.cpu.itb.stage2_mmu.stage2_tlb.domain_faults            0                       # Number of TLB faults due to domain restrictions
system.cpu.itb.stage2_mmu.stage2_tlb.flush_entries            0                       # Number of entries that have been flushed from TLB
system.cpu.itb.stage2_mmu.stage2_tlb.flush_tlb            0                       # Number of times complete TLB was flushed
system.cpu.itb.stage2_mmu.stage2_tlb.flush_tlb_asid            0                       # Number of times TLB was flushed by ASID
system.cpu.itb.stage2_mmu.stage2_tlb.flush_tlb_mva            0                       # Number of times TLB was flushed by MVA
system.cpu.itb.stage2_mmu.stage2_tlb.flush_tlb_mva_asid            0                       # Number of times TLB was flushed by MVA & ASID
system.cpu.itb.stage2_mmu.stage2_tlb.hits            0                       # DTB hits
system.cpu.itb.stage2_mmu.stage2_tlb.inst_accesses            0                       # ITB inst accesses
system.cpu.itb.stage2_mmu.stage2_tlb.inst_hits            0                       # ITB inst hits
system.cpu.itb.stage2_mmu.stage2_tlb.inst_misses            0                       # ITB inst misses
system.cpu.itb.stage2_mmu.stage2_tlb.misses            0                       # DTB misses
system.cpu.itb.stage2_mmu.stage2_tlb.perms_faults            0                       # Number of TLB faults due to permissions restrictions
system.cpu.itb.stage2_mmu.stage2_tlb.prefetch_faults            0                       # Number of TLB faults due to prefetch
system.cpu.itb.stage2_mmu.stage2_tlb.read_accesses            0                       # DTB read accesses
system.cpu.itb.stage2_mmu.stage2_tlb.read_hits            0                       # DTB read hits
system.cpu.itb.stage2_mmu.stage2_tlb.read_misses            0                       # DTB read misses
system.cpu.itb.stage2_mmu.stage2_tlb.walker.walkRequestOrigin_Requested::Data            0                       # Table walker requests started/completed, data/inst
system.cpu.itb.stage2_mmu.stage2_tlb.walker.walkRequestOrigin_Requested::Inst            0                       # Table walker requests started/completed, data/inst
system.cpu.itb.stage2_mmu.stage2_tlb.walker.walkRequestOrigin_Requested::total            0                       # Table walker requests started/completed, data/inst
system.cpu.itb.stage2_mmu.stage2_tlb.walker.walkRequestOrigin_Completed::Data            0                       # Table walker requests started/completed, data/inst
system.cpu.itb.stage2_mmu.stage2_tlb.walker.walkRequestOrigin_Completed::Inst            0                       # Table walker requests started/completed, data/inst
system.cpu.itb.stage2_mmu.stage2_tlb.walker.walkRequestOrigin_Completed::total            0                       # Table walker requests started/completed, data/inst
system.cpu.itb.stage2_mmu.stage2_tlb.walker.walkRequestOrigin::total            0                       # Table walker requests started/completed, data/inst
system.cpu.itb.stage2_mmu.stage2_tlb.walker.walks            0                       # Table walker walks requested
system.cpu.itb.stage2_mmu.stage2_tlb.write_accesses            0                       # DTB write accesses
system.cpu.itb.stage2_mmu.stage2_tlb.write_hits            0                       # DTB write hits
system.cpu.itb.stage2_mmu.stage2_tlb.write_misses            0                       # DTB write misses
system.cpu.itb.walker.walkRequestOrigin_Requested::Data            0                       # Table walker requests started/completed, data/inst
system.cpu.itb.walker.walkRequestOrigin_Requested::Inst            0                       # Table walker requests started/completed, data/inst
system.cpu.itb.walker.walkRequestOrigin_Requested::total            0                       # Table walker requests started/completed, data/inst
system.cpu.itb.walker.walkRequestOrigin_Completed::Data            0                       # Table walker requests started/completed, data/inst
system.cpu.itb.walker.walkRequestOrigin_Completed::Inst            0                       # Table walker requests started/completed, data/inst
system.cpu.itb.walker.walkRequestOrigin_Completed::total            0                       # Table walker requests started/completed, data/inst
system.cpu.itb.walker.walkRequestOrigin::total            0                       # Table walker requests started/completed, data/inst
system.cpu.itb.walker.walks                         0                       # Table walker walks requested
system.cpu.itb.write_accesses                       0                       # DTB write accesses
system.cpu.itb.write_hits                           0                       # DTB write hits
system.cpu.itb.write_misses                         0                       # DTB write misses
system.cpu.numCycles                        262355453                       # number of cpu cycles simulated
system.cpu.numFetchSuspends                         0                       # Number of times Execute suspended instruction fetching
system.cpu.numWorkItemsCompleted                    0                       # number of work items this cpu completed
system.cpu.numWorkItemsStarted                      0                       # number of work items this cpu started
system.cpu.op_class_0::No_OpClass                   0      0.00%      0.00% # Class of committed instruction
system.cpu.op_class_0::IntAlu                50006868     50.01%     50.01% # Class of committed instruction
system.cpu.op_class_0::IntMult                     85      0.00%     50.01% # Class of committed instruction
system.cpu.op_class_0::IntDiv                       0      0.00%     50.01% # Class of committed instruction
system.cpu.op_class_0::FloatAdd                     0      0.00%     50.01% # Class of committed instruction
system.cpu.op_class_0::FloatCmp                     0      0.00%     50.01% # Class of committed instruction
system.cpu.op_class_0::FloatCvt                     0      0.00%     50.01% # Class of committed instruction
system.cpu.op_class_0::FloatMult                    0      0.00%     50.01% # Class of committed instruction
system.cpu.op_class_0::FloatMultAcc                 0      0.00%     50.01% # Class of committed instruction
system.cpu.op_class_0::FloatDiv                     0      0.00%     50.01% # Class of committed instruction
system.cpu.op_class_0::FloatMisc                    0      0.00%     50.01% # Class of committed instruction
system.cpu.op_class_0::FloatSqrt                    0      0.00%     50.01% # Class of committed instruction
system.cpu.op_class_0::SimdAdd                      0      0.00%     50.01% # Class of committed instruction
system.cpu.op_class_0::SimdAddAcc                   0      0.00%     50.01% # Class of committed instruction
system.cpu.op_class_0::SimdAlu                      0      0.00%     50.01% # Class of committed instruction
system.cpu.op_class_0::SimdCmp                      0      0.00%     50.01% # Class of committed instruction
system.cpu.op_class_0::SimdCvt                      0      0.00%     50.01% # Class of committed instruction
system.cpu.op_class_0::SimdMisc                     0      0.00%     50.01% # Class of committed instruction
system.cpu.op_class_0::SimdMult                     0      0.00%     50.01% # Class of committed instruction
system.cpu.op_class_0::SimdMultAcc                  0      0.00%     50.01% # Class of committed instruction
system.cpu.op_class_0::SimdShift                    0      0.00%     50.01% # Class of committed instruction
system.cpu.op_class_0::SimdShiftAcc                 0      0.00%     50.01% # Class of committed instruction
system.cpu.op_class_0::SimdDiv                      0      0.00%     50.01% # Class of committed instruction
system.cpu.op_class_0::SimdSqrt                     0      0.00%     50.01% # Class of committed instruction
system.cpu.op_class_0::SimdFloatAdd                 0      0.00%     50.01% # Class of committed instruction
system.cpu.op_class_0::SimdFloatAlu                 0      0.00%     50.01% # Class of committed instruction
system.cpu.op_class_0::SimdFloatCmp                 2      0.00%     50.01% # Class of committed instruction
system.cpu.op_class_0::SimdFloatCvt                 0      0.00%     50.01% # Class of committed instruction
system.cpu.op_class_0::SimdFloatDiv                 0      0.00%     50.01% # Class of committed instruction
system.cpu.op_class_0::SimdFloatMisc                5      0.00%     50.01% # Class of committed instruction
system.cpu.op_class_0::SimdFloatMult                0      0.00%     50.01% # Class of committed instruction
system.cpu.op_class_0::SimdFloatMultAcc             0      0.00%     50.01% # Class of committed instruction
system.cpu.op_class_0::SimdFloatSqrt                0      0.00%     50.01% # Class of committed instruction
system.cpu.op_class_0::SimdReduceAdd                0      0.00%     50.01% # Class of committed instruction
system.cpu.op_class_0::SimdReduceAlu                0      0.00%     50.01% # Class of committed instruction
system.cpu.op_class_0::SimdReduceCmp                0      0.00%     50.01% # Class of committed instruction
system.cpu.op_class_0::SimdFloatReduceAdd            0      0.00%     50.01% # Class of committed instruction
system.cpu.op_class_0::SimdFloatReduceCmp            0      0.00%     50.01% # Class of committed instruction
system.cpu.op_class_0::SimdAes                      0      0.00%     50.01% # Class of committed instruction
system.cpu.op_class_0::SimdAesMix                   0      0.00%     50.01% # Class of committed instruction
system.cpu.op_class_0::SimdSha1Hash                 0      0.00%     50.01% # Class of committed instruction
system.cpu.op_class_0::SimdSha1Hash2                0      0.00%     50.01% # Class of committed instruction
system.cpu.op_class_0::SimdSha256Hash               0      0.00%     50.01% # Class of committed instruction
system.cpu.op_class_0::SimdSha256Hash2              0      0.00%     50.01% # Class of committed instruction
system.cpu.op_class_0::SimdShaSigma2                0      0.00%     50.01% # Class of committed instruction
system.cpu.op_class_0::SimdShaSigma3                0      0.00%     50.01% # Class of committed instruction
system.cpu.op_class_0::SimdPredAlu                  0      0.00%     50.01% # Class of committed instruction
system.cpu.op_class_0::MemRead               36900855     36.90%     86.90% # Class of committed instruction
system.cpu.op_class_0::MemWrite              13095630     13.10%    100.00% # Class of committed instruction
system.cpu.op_class_0::FloatMemRead                 0      0.00%    100.00% # Class of committed instruction
system.cpu.op_class_0::FloatMemWrite                0      0.00%    100.00% # Class of committed instruction
system.cpu.op_class_0::IprAccess                    0      0.00%    100.00% # Class of committed instruction
system.cpu.op_class_0::InstPrefetch                 0      0.00%    100.00% # Class of committed instruction
system.cpu.op_class_0::total                100003445                       # Class of committed instruction
system.cpu.tickCycles                       117271104                       # Number of cycles that the object actually ticked
system.cpu.workload.numSyscalls                    19                       # Number of system calls
system.membus.snoop_filter.hit_multi_requests            0                       # Number of requests hitting in the snoop filter with multiple (>1) holders of the requested data.
system.membus.snoop_filter.hit_multi_snoops            0                       # Number of snoops hitting in the snoop filter with multiple (>1) holders of the requested data.
system.membus.snoop_filter.hit_single_requests      1455203                       # Number of requests hitting in the snoop filter with a single holder of the requested data.
system.membus.snoop_filter.hit_single_snoops            0                       # Number of snoops hitting in the snoop filter with a single holder of the requested data.
system.membus.snoop_filter.tot_requests       2943645                       # Total number of requests made to the snoop filter.
system.membus.snoop_filter.tot_snoops               0                       # Total number of snoops made to the snoop filter.
system.tol2bus.snoop_filter.hit_multi_requests           28                       # Number of requests hitting in the snoop filter with multiple (>1) holders of the requested data.
system.tol2bus.snoop_filter.hit_multi_snoops            1                       # Number of snoops hitting in the snoop filter with multiple (>1) holders of the requested data.
system.tol2bus.snoop_filter.hit_single_requests      1485959                       # Number of requests hitting in the snoop filter with a single holder of the requested data.
system.tol2bus.snoop_filter.hit_single_snoops          470                       # Number of snoops hitting in the snoop filter with a single holder of the requested data.
system.tol2bus.snoop_filter.tot_requests      2974434                       # Total number of requests made to the snoop filter.
system.tol2bus.snoop_filter.tot_snoops            471                       # Total number of snoops made to the snoop filter.
system.membus.pwrStateResidencyTicks::UNDEFINED 262355453000                       # Cumulative time (in ticks) in various power states
system.membus.trans_dist::ReadResp                601                       # Transaction distribution
system.membus.trans_dist::WritebackDirty      1455087                       # Transaction distribution
system.membus.trans_dist::CleanEvict              116                       # Transaction distribution
system.membus.trans_dist::ReadExReq           1487841                       # Transaction distribution
system.membus.trans_dist::ReadExResp          1487841                       # Transaction distribution
system.membus.trans_dist::ReadSharedReq           601                       # Transaction distribution
system.membus.pkt_count_system.l2.mem_side::system.mem_ctrls.port      4432087                       # Packet count per connected master and slave (bytes)
system.membus.pkt_count::total                4432087                       # Packet count per connected master and slave (bytes)
system.membus.pkt_size_system.l2.mem_side::system.mem_ctrls.port    188385856                       # Cumulative packet size per connected master and slave (bytes)
system.membus.pkt_size::total               188385856                       # Cumulative packet size per connected master and slave (bytes)
system.membus.snoops                                0                       # Total snoops (count)
system.membus.snoopTraffic                          0                       # Total snoop traffic (bytes)
system.membus.snoop_fanout::samples           1488442                       # Request fanout histogram
system.membus.snoop_fanout::mean                    0                       # Request fanout histogram
system.membus.snoop_fanout::stdev                   0                       # Request fanout histogram
system.membus.snoop_fanout::underflows              0      0.00%      0.00% # Request fanout histogram
system.membus.snoop_fanout::0                 1488442    100.00%    100.00% # Request fanout histogram
system.membus.snoop_fanout::1                       0      0.00%    100.00% # Request fanout histogram
system.membus.snoop_fanout::overflows               0      0.00%    100.00% # Request fanout histogram
system.membus.snoop_fanout::min_value               0                       # Request fanout histogram
system.membus.snoop_fanout::max_value               0                       # Request fanout histogram
system.membus.snoop_fanout::total             1488442                       # Request fanout histogram
system.membus.respLayer1.occupancy         7836908250                       # Layer occupancy (ticks)
system.membus.respLayer1.utilization              3.0                       # Layer utilization (%)
system.membus.reqLayer0.occupancy          8763993000                       # Layer occupancy (ticks)
system.membus.reqLayer0.utilization               3.3                       # Layer utilization (%)
system.tol2bus.pwrStateResidencyTicks::UNDEFINED 262355453000                       # Cumulative time (in ticks) in various power states
system.tol2bus.trans_dist::ReadResp               634                       # Transaction distribution
system.tol2bus.trans_dist::WritebackDirty      2940897                       # Transaction distribution
system.tol2bus.trans_dist::WritebackClean           45                       # Transaction distribution
system.tol2bus.trans_dist::CleanEvict             690                       # Transaction distribution
system.tol2bus.trans_dist::ReadExReq          1487842                       # Transaction distribution
system.tol2bus.trans_dist::ReadExResp         1487841                       # Transaction distribution
system.tol2bus.trans_dist::ReadCleanReq           514                       # Transaction distribution
system.tol2bus.trans_dist::ReadSharedReq          120                       # Transaction distribution
system.tol2bus.pkt_count_system.cpu.icache.mem_side::system.l2.cpu_side         1073                       # Packet count per connected master and slave (bytes)
system.tol2bus.pkt_count_system.cpu.dcache.mem_side::system.l2.cpu_side      4461836                       # Packet count per connected master and slave (bytes)
system.tol2bus.pkt_count::total               4462909                       # Packet count per connected master and slave (bytes)
system.tol2bus.pkt_size_system.cpu.icache.mem_side::system.l2.cpu_side        35776                       # Cumulative packet size per connected master and slave (bytes)
system.tol2bus.pkt_size_system.cpu.dcache.mem_side::system.l2.cpu_side    190321344                       # Cumulative packet size per connected master and slave (bytes)
system.tol2bus.pkt_size::total              190357120                       # Cumulative packet size per connected master and slave (bytes)
system.tol2bus.snoops                         1455674                       # Total snoops (count)
system.tol2bus.snoopTraffic                  93125568                       # Total snoop traffic (bytes)
system.tol2bus.snoop_fanout::samples          2944150                       # Request fanout histogram
system.tol2bus.snoop_fanout::mean            0.000170                       # Request fanout histogram
system.tol2bus.snoop_fanout::stdev           0.013070                       # Request fanout histogram
system.tol2bus.snoop_fanout::underflows             0      0.00%      0.00% # Request fanout histogram
system.tol2bus.snoop_fanout::0                2943650     99.98%     99.98% # Request fanout histogram
system.tol2bus.snoop_fanout::1                    499      0.02%    100.00% # Request fanout histogram
system.tol2bus.snoop_fanout::2                      1      0.00%    100.00% # Request fanout histogram
system.tol2bus.snoop_fanout::overflows              0      0.00%    100.00% # Request fanout histogram
system.tol2bus.snoop_fanout::min_value              0                       # Request fanout histogram
system.tol2bus.snoop_fanout::max_value              2                       # Request fanout histogram
system.tol2bus.snoop_fanout::total            2944150                       # Request fanout histogram
system.tol2bus.reqLayer0.occupancy         5946144000                       # Layer occupancy (ticks)
system.tol2bus.reqLayer0.utilization              2.3                       # Layer utilization (%)
system.tol2bus.respLayer1.occupancy        4463883999                       # Layer occupancy (ticks)
system.tol2bus.respLayer1.utilization             1.7                       # Layer utilization (%)
system.tol2bus.respLayer0.occupancy           1542999                       # Layer occupancy (ticks)
system.tol2bus.respLayer0.utilization             0.0                       # Layer utilization (%)
system.voltage_domain.voltage                       1                       # Voltage in Volts
system.clk_domain.clock                          1000                       # Clock period in ticks
system.l2.pwrStateResidencyTicks::UNDEFINED 262355453000                       # Cumulative time (in ticks) in various power states
system.l2.demand_hits::.cpu.inst                   18                       # number of demand (read+write) hits
system.l2.demand_hits::.cpu.data                   13                       # number of demand (read+write) hits
system.l2.demand_hits::total                       31                       # number of demand (read+write) hits
system.l2.overall_hits::.cpu.inst                  18                       # number of overall hits
system.l2.overall_hits::.cpu.data                  13                       # number of overall hits
system.l2.overall_hits::total                      31                       # number of overall hits
system.l2.demand_misses::.cpu.inst                496                       # number of demand (read+write) misses
system.l2.demand_misses::.cpu.data            1487949                       # number of demand (read+write) misses
system.l2.demand_misses::total                1488445                       # number of demand (read+write) misses
system.l2.overall_misses::.cpu.inst               496                       # number of overall misses
system.l2.overall_misses::.cpu.data           1487949                       # number of overall misses
system.l2.overall_misses::total               1488445                       # number of overall misses
system.l2.demand_miss_latency::.cpu.inst     47425000                       # number of demand (read+write) miss cycles
system.l2.demand_miss_latency::.cpu.data 150704017000                       # number of demand (read+write) miss cycles
system.l2.demand_miss_latency::total     150751442000                       # number of demand (read+write) miss cycles
system.l2.overall_miss_latency::.cpu.inst     47425000                       # number of overall miss cycles
system.l2.overall_miss_latency::.cpu.data 150704017000                       # number of overall miss cycles
system.l2.overall_miss_latency::total    150751442000                       # number of overall miss cycles
system.l2.demand_accesses::.cpu.inst              514                       # number of demand (read+write) accesses
system.l2.demand_accesses::.cpu.data          1487962                       # number of demand (read+write) accesses
system.l2.demand_accesses::total              1488476                       # number of demand (read+write) accesses
system.l2.overall_accesses::.cpu.inst             514                       # number of overall (read+write) accesses
system.l2.overall_accesses::.cpu.data         1487962                       # number of overall (read+write) accesses
system.l2.overall_accesses::total             1488476                       # number of overall (read+write) accesses
system.l2.demand_miss_rate::.cpu.inst        0.964981                       # miss rate for demand accesses
system.l2.demand_miss_rate::.cpu.data        0.999991                       # miss rate for demand accesses
system.l2.demand_miss_rate::total            0.999979                       # miss rate for demand accesses
system.l2.overall_miss_rate::.cpu.inst       0.964981                       # miss rate for overall accesses
system.l2.overall_miss_rate::.cpu.data       0.999991                       # miss rate for overall accesses
system.l2.overall_miss_rate::total           0.999979                       # miss rate for overall accesses
system.l2.demand_avg_miss_latency::.cpu.inst 95614.919355                       # average overall miss latency
system.l2.demand_avg_miss_latency::.cpu.data 101283.052712                       # average overall miss latency
system.l2.demand_avg_miss_latency::total 101281.163899                       # average overall miss latency
system.l2.overall_avg_miss_latency::.cpu.inst 95614.919355                       # average overall miss latency
system.l2.overall_avg_miss_latency::.cpu.data 101283.052712                       # average overall miss latency
system.l2.overall_avg_miss_latency::total 101281.163899                       # average overall miss latency
system.l2.blocked_cycles::no_mshrs                  0                       # number of cycles access was blocked
system.l2.blocked_cycles::no_targets                0                       # number of cycles access was blocked
system.l2.blocked::no_mshrs                         0                       # number of cycles access was blocked
system.l2.blocked::no_targets                       0                       # number of cycles access was blocked
system.l2.avg_blocked_cycles::no_mshrs            nan                       # average number of cycles each access was blocked
system.l2.avg_blocked_cycles::no_targets          nan                       # average number of cycles each access was blocked
system.l2.writebacks::.writebacks             1455087                       # number of writebacks
system.l2.writebacks::total                   1455087                       # number of writebacks
system.l2.demand_mshr_hits::.cpu.inst               1                       # number of demand (read+write) MSHR hits
system.l2.demand_mshr_hits::.cpu.data               1                       # number of demand (read+write) MSHR hits
system.l2.demand_mshr_hits::total                   2                       # number of demand (read+write) MSHR hits
system.l2.overall_mshr_hits::.cpu.inst              1                       # number of overall MSHR hits
system.l2.overall_mshr_hits::.cpu.data              1                       # number of overall MSHR hits
system.l2.overall_mshr_hits::total                  2                       # number of overall MSHR hits
system.l2.demand_mshr_misses::.cpu.inst           495                       # number of demand (read+write) MSHR misses
system.l2.demand_mshr_misses::.cpu.data       1487948                       # number of demand (read+write) MSHR misses
system.l2.demand_mshr_misses::total           1488443                       # number of demand (read+write) MSHR misses
system.l2.overall_mshr_misses::.cpu.inst          495                       # number of overall MSHR misses
system.l2.overall_mshr_misses::.cpu.data      1487948                       # number of overall MSHR misses
system.l2.overall_mshr_misses::total          1488443                       # number of overall MSHR misses
system.l2.demand_mshr_miss_latency::.cpu.inst     37423000                       # number of demand (read+write) MSHR miss cycles
system.l2.demand_mshr_miss_latency::.cpu.data 120945004000                       # number of demand (read+write) MSHR miss cycles
system.l2.demand_mshr_miss_latency::total 120982427000                       # number of demand (read+write) MSHR miss cycles
system.l2.overall_mshr_miss_latency::.cpu.inst     37423000                       # number of overall MSHR miss cycles
system.l2.overall_mshr_miss_latency::.cpu.data 120945004000                       # number of overall MSHR miss cycles
system.l2.overall_mshr_miss_latency::total 120982427000                       # number of overall MSHR miss cycles
system.l2.demand_mshr_miss_rate::.cpu.inst     0.963035                       # mshr miss rate for demand accesses
system.l2.demand_mshr_miss_rate::.cpu.data     0.999991                       # mshr miss rate for demand accesses
system.l2.demand_mshr_miss_rate::total       0.999978                       # mshr miss rate for demand accesses
system.l2.overall_mshr_miss_rate::.cpu.inst     0.963035                       # mshr miss rate for overall accesses
system.l2.overall_mshr_miss_rate::.cpu.data     0.999991                       # mshr miss rate for overall accesses
system.l2.overall_mshr_miss_rate::total      0.999978                       # mshr miss rate for overall accesses
system.l2.demand_avg_mshr_miss_latency::.cpu.inst 75602.020202                       # average overall mshr miss latency
system.l2.demand_avg_mshr_miss_latency::.cpu.data 81283.085162                       # average overall mshr miss latency
system.l2.demand_avg_mshr_miss_latency::total 81281.195854                       # average overall mshr miss latency
system.l2.overall_avg_mshr_miss_latency::.cpu.inst 75602.020202                       # average overall mshr miss latency
system.l2.overall_avg_mshr_miss_latency::.cpu.data 81283.085162                       # average overall mshr miss latency
system.l2.overall_avg_mshr_miss_latency::total 81281.195854                       # average overall mshr miss latency
system.l2.replacements                        1455674                       # number of replacements
system.l2.WritebackDirty_hits::.writebacks      1485810                       # number of WritebackDirty hits
system.l2.WritebackDirty_hits::total          1485810                       # number of WritebackDirty hits
system.l2.WritebackDirty_accesses::.writebacks      1485810                       # number of WritebackDirty accesses(hits+misses)
system.l2.WritebackDirty_accesses::total      1485810                       # number of WritebackDirty accesses(hits+misses)
system.l2.WritebackClean_hits::.writebacks           43                       # number of WritebackClean hits
system.l2.WritebackClean_hits::total               43                       # number of WritebackClean hits
system.l2.WritebackClean_accesses::.writebacks           43                       # number of WritebackClean accesses(hits+misses)
system.l2.WritebackClean_accesses::total           43                       # number of WritebackClean accesses(hits+misses)
system.l2.ReadExReq_misses::.cpu.data         1487842                       # number of ReadExReq misses
system.l2.ReadExReq_misses::total             1487842                       # number of ReadExReq misses
system.l2.ReadExReq_miss_latency::.cpu.data 150693329000                       # number of ReadExReq miss cycles
system.l2.ReadExReq_miss_latency::total  150693329000                       # number of ReadExReq miss cycles
system.l2.ReadExReq_accesses::.cpu.data       1487842                       # number of ReadExReq accesses(hits+misses)
system.l2.ReadExReq_accesses::total           1487842                       # number of ReadExReq accesses(hits+misses)
system.l2.ReadExReq_miss_rate::.cpu.data            1                       # miss rate for ReadExReq accesses
system.l2.ReadExReq_miss_rate::total                1                       # miss rate for ReadExReq accesses
system.l2.ReadExReq_avg_miss_latency::.cpu.data 101283.153050                       # average ReadExReq miss latency
system.l2.ReadExReq_avg_miss_latency::total 101283.153050                       # average ReadExReq miss latency
system.l2.ReadExReq_mshr_misses::.cpu.data      1487842                       # number of ReadExReq MSHR misses
system.l2.ReadExReq_mshr_misses::total        1487842                       # number of ReadExReq MSHR misses
system.l2.ReadExReq_mshr_miss_latency::.cpu.data 120936509000                       # number of ReadExReq MSHR miss cycles
system.l2.ReadExReq_mshr_miss_latency::total 120936509000                       # number of ReadExReq MSHR miss cycles
system.l2.ReadExReq_mshr_miss_rate::.cpu.data            1                       # mshr miss rate for ReadExReq accesses
system.l2.ReadExReq_mshr_miss_rate::total            1                       # mshr miss rate for ReadExReq accesses
system.l2.ReadExReq_avg_mshr_miss_latency::.cpu.data 81283.166492                       # average ReadExReq mshr miss latency
system.l2.ReadExReq_avg_mshr_miss_latency::total 81283.166492                       # average ReadExReq mshr miss latency
system.l2.ReadCleanReq_hits::.cpu.inst             18                       # number of ReadCleanReq hits
system.l2.ReadCleanReq_hits::total                 18                       # number of ReadCleanReq hits
system.l2.ReadCleanReq_misses::.cpu.inst          496                       # number of ReadCleanReq misses
system.l2.ReadCleanReq_misses::total              496                       # number of ReadCleanReq misses
system.l2.ReadCleanReq_miss_latency::.cpu.inst     47425000                       # number of ReadCleanReq miss cycles
system.l2.ReadCleanReq_miss_latency::total     47425000                       # number of ReadCleanReq miss cycles
system.l2.ReadCleanReq_accesses::.cpu.inst          514                       # number of ReadCleanReq accesses(hits+misses)
system.l2.ReadCleanReq_accesses::total            514                       # number of ReadCleanReq accesses(hits+misses)
system.l2.ReadCleanReq_miss_rate::.cpu.inst     0.964981                       # miss rate for ReadCleanReq accesses
system.l2.ReadCleanReq_miss_rate::total      0.964981                       # miss rate for ReadCleanReq accesses
system.l2.ReadCleanReq_avg_miss_latency::.cpu.inst 95614.919355                       # average ReadCleanReq miss latency
system.l2.ReadCleanReq_avg_miss_latency::total 95614.919355                       # average ReadCleanReq miss latency
system.l2.ReadCleanReq_mshr_hits::.cpu.inst            1                       # number of ReadCleanReq MSHR hits
system.l2.ReadCleanReq_mshr_hits::total             1                       # number of ReadCleanReq MSHR hits
system.l2.ReadCleanReq_mshr_misses::.cpu.inst          495                       # number of ReadCleanReq MSHR misses
system.l2.ReadCleanReq_mshr_misses::total          495                       # number of ReadCleanReq MSHR misses
system.l2.ReadCleanReq_mshr_miss_latency::.cpu.inst     37423000                       # number of ReadCleanReq MSHR miss cycles
system.l2.ReadCleanReq_mshr_miss_latency::total     37423000                       # number of ReadCleanReq MSHR miss cycles
system.l2.ReadCleanReq_mshr_miss_rate::.cpu.inst     0.963035                       # mshr miss rate for ReadCleanReq accesses
system.l2.ReadCleanReq_mshr_miss_rate::total     0.963035                       # mshr miss rate for ReadCleanReq accesses
system.l2.ReadCleanReq_avg_mshr_miss_latency::.cpu.inst 75602.020202                       # average ReadCleanReq mshr miss latency
system.l2.ReadCleanReq_avg_mshr_miss_latency::total 75602.020202                       # average ReadCleanReq mshr miss latency
system.l2.ReadSharedReq_hits::.cpu.data            13                       # number of ReadSharedReq hits
system.l2.ReadSharedReq_hits::total                13                       # number of ReadSharedReq hits
system.l2.ReadSharedReq_misses::.cpu.data          107                       # number of ReadSharedReq misses
system.l2.ReadSharedReq_misses::total             107                       # number of ReadSharedReq misses
system.l2.ReadSharedReq_miss_latency::.cpu.data     10688000                       # number of ReadSharedReq miss cycles
system.l2.ReadSharedReq_miss_latency::total     10688000                       # number of ReadSharedReq miss cycles
system.l2.ReadSharedReq_accesses::.cpu.data          120                       # number of ReadSharedReq accesses(hits+misses)
system.l2.ReadSharedReq_accesses::total           120                       # number of ReadSharedReq accesses(hits+misses)
system.l2.ReadSharedReq_miss_rate::.cpu.data     0.891667                       # miss rate for ReadSharedReq accesses
system.l2.ReadSharedReq_miss_rate::total     0.891667                       # miss rate for ReadSharedReq accesses
system.l2.ReadSharedReq_avg_miss_latency::.cpu.data 99887.850467                       # average ReadSharedReq miss latency
system.l2.ReadSharedReq_avg_miss_latency::total 99887.850467                       # average ReadSharedReq miss latency
system.l2.ReadSharedReq_mshr_hits::.cpu.data            1                       # number of ReadSharedReq MSHR hits
system.l2.ReadSharedReq_mshr_hits::total            1                       # number of ReadSharedReq MSHR hits
system.l2.ReadSharedReq_mshr_misses::.cpu.data          106                       # number of ReadSharedReq MSHR misses
system.l2.ReadSharedReq_mshr_misses::total          106                       # number of ReadSharedReq MSHR misses
system.l2.ReadSharedReq_mshr_miss_latency::.cpu.data      8495000                       # number of ReadSharedReq MSHR miss cycles
system.l2.ReadSharedReq_mshr_miss_latency::total      8495000                       # number of ReadSharedReq MSHR miss cycles
system.l2.ReadSharedReq_mshr_miss_rate::.cpu.data     0.883333                       # mshr miss rate for ReadSharedReq accesses
system.l2.ReadSharedReq_mshr_miss_rate::total     0.883333                       # mshr miss rate for ReadSharedReq accesses
system.l2.ReadSharedReq_avg_mshr_miss_latency::.cpu.data 80141.509434                       # average ReadSharedReq mshr miss latency
system.l2.ReadSharedReq_avg_mshr_miss_latency::total 80141.509434                       # average ReadSharedReq mshr miss latency
system.l2.tags.pwrStateResidencyTicks::UNDEFINED 262355453000                       # Cumulative time (in ticks) in various power states
system.l2.tags.tagsinuse                 32424.011909                       # Cycle average of tags in use
system.l2.tags.total_refs                     2974403                       # Total number of references to valid blocks.
system.l2.tags.sampled_refs                   1488442                       # Sample count of references to valid blocks.
system.l2.tags.avg_refs                      1.998333                       # Average number of references to valid blocks.
system.l2.tags.warmup_cycle                     87000                       # Cycle when the warmup percentage was hit.
system.l2.tags.occ_blocks::.cpu.inst         9.730525                       # Average occupied blocks per requestor
system.l2.tags.occ_blocks::.cpu.data     32414.281384                       # Average occupied blocks per requestor
system.l2.tags.occ_percent::.cpu.inst        0.000297                       # Average percentage of cache occupancy
system.l2.tags.occ_percent::.cpu.data        0.989205                       # Average percentage of cache occupancy
system.l2.tags.occ_percent::total            0.989502                       # Average percentage of cache occupancy
system.l2.tags.occ_task_id_blocks::1024         32768                       # Occupied blocks per task id
system.l2.tags.age_task_id_blocks_1024::0           57                       # Occupied blocks per task id
system.l2.tags.age_task_id_blocks_1024::1          510                       # Occupied blocks per task id
system.l2.tags.age_task_id_blocks_1024::2         5102                       # Occupied blocks per task id
system.l2.tags.age_task_id_blocks_1024::3        27099                       # Occupied blocks per task id
system.l2.tags.occ_task_id_percent::1024            1                       # Percentage of cache occupancy per task id
system.l2.tags.tag_accesses                  25283690                       # Number of tag accesses
system.l2.tags.data_accesses                 25283690                       # Number of data accesses
system.cpu_voltage_domain.voltage                   1                       # Voltage in Volts
system.mem_ctrls.pwrStateResidencyTicks::UNDEFINED 262355453000                       # Cumulative time (in ticks) in various power states
system.mem_ctrls.bytes_read::.cpu.inst          31680                       # Number of bytes read from this memory
system.mem_ctrls.bytes_read::.cpu.data       95228608                       # Number of bytes read from this memory
system.mem_ctrls.bytes_read::total           95260288                       # Number of bytes read from this memory
system.mem_ctrls.bytes_inst_read::.cpu.inst        31680                       # Number of instructions bytes read from this memory
system.mem_ctrls.bytes_inst_read::total         31680                       # Number of instructions bytes read from this memory
system.mem_ctrls.bytes_written::.writebacks     93125568                       # Number of bytes written to this memory
system.mem_ctrls.bytes_written::total        93125568                       # Number of bytes written to this memory
system.mem_ctrls.num_reads::.cpu.inst             495                       # Number of read requests responded to by this memory
system.mem_ctrls.num_reads::.cpu.data         1487947                       # Number of read requests responded to by this memory
system.mem_ctrls.num_reads::total             1488442                       # Number of read requests responded to by this memory
system.mem_ctrls.num_writes::.writebacks      1455087                       # Number of write requests responded to by this memory
system.mem_ctrls.num_writes::total            1455087                       # Number of write requests responded to by this memory
system.mem_ctrls.bw_read::.cpu.inst            120752                       # Total read bandwidth from this memory (bytes/s)
system.mem_ctrls.bw_read::.cpu.data         362975524                       # Total read bandwidth from this memory (bytes/s)
system.mem_ctrls.bw_read::total             363096276                       # Total read bandwidth from this memory (bytes/s)
system.mem_ctrls.bw_inst_read::.cpu.inst       120752                       # Instruction read bandwidth from this memory (bytes/s)
system.mem_ctrls.bw_inst_read::total           120752                       # Instruction read bandwidth from this memory (bytes/s)
system.mem_ctrls.bw_write::.writebacks      354959529                       # Write bandwidth from this memory (bytes/s)
system.mem_ctrls.bw_write::total            354959529                       # Write bandwidth from this memory (bytes/s)
system.mem_ctrls.bw_total::.writebacks      354959529                       # Total bandwidth to/from this memory (bytes/s)
system.mem_ctrls.bw_total::.cpu.inst           120752                       # Total bandwidth to/from this memory (bytes/s)
system.mem_ctrls.bw_total::.cpu.data        362975524                       # Total bandwidth to/from this memory (bytes/s)
system.mem_ctrls.bw_total::total            718055805                       # Total bandwidth to/from this memory (bytes/s)
system.mem_ctrls.avgPriority_.writebacks::samples   1455087.00                       # Average QoS priority value for accepted requests
system.mem_ctrls.avgPriority_.cpu.inst::samples       495.00                       # Average QoS priority value for accepted requests
system.mem_ctrls.avgPriority_.cpu.data::samples   1487947.00                       # Average QoS priority value for accepted requests
system.mem_ctrls.priorityMinLatency      0.000000018750                       # per QoS priority minimum request to response latency (s)
system.mem_ctrls.priorityMaxLatency      0.000786278500                       # per QoS priority maximum request to response latency (s)
system.mem_ctrls.numReadWriteTurnArounds        80726                       # Number of turnarounds from READ to WRITE
system.mem_ctrls.numWriteReadTurnArounds        80727                       # Number of turnarounds from WRITE to READ
system.mem_ctrls.numStayReadState             4435707                       # Number of times bus staying in READ state
system.mem_ctrls.numStayWriteState            1374601                       # Number of times bus staying in WRITE state
system.mem_ctrls.readReqs                     1488442                       # Number of read requests accepted
system.mem_ctrls.writeReqs                    1455087                       # Number of write requests accepted
system.mem_ctrls.readBursts                   1488442                       # Number of DRAM read bursts, including those serviced by the write queue
system.mem_ctrls.writeBursts                  1455087                       # Number of DRAM write bursts, including those merged in the write queue
system.mem_ctrls.servicedByWrQ                      0                       # Number of DRAM read bursts serviced by the write queue
system.mem_ctrls.mergedWrBursts                     0                       # Number of DRAM write bursts merged with an existing one
system.mem_ctrls.neitherReadNorWriteReqs            0                       # Number of requests that are neither read nor write
system.mem_ctrls.perBankRdBursts::0             92997                       # Per bank write bursts
system.mem_ctrls.perBankRdBursts::1             92978                       # Per bank write bursts
system.mem_ctrls.perBankRdBursts::2             93116                       # Per bank write bursts
system.mem_ctrls.perBankRdBursts::3             93086                       # Per bank write bursts
system.mem_ctrls.perBankRdBursts::4             93097                       # Per bank write bursts
system.mem_ctrls.perBankRdBursts::5             93064                       # Per bank write bursts
system.mem_ctrls.perBankRdBursts::6             93082                       # Per bank write bursts
system.mem_ctrls.perBankRdBursts::7             93068                       # Per bank write bursts
system.mem_ctrls.perBankRdBursts::8             93126                       # Per bank write bursts
system.mem_ctrls.perBankRdBursts::9             93038                       # Per bank write bursts
system.mem_ctrls.perBankRdBursts::10            92963                       # Per bank write bursts
system.mem_ctrls.perBankRdBursts::11            92954                       # Per bank write bursts
system.mem_ctrls.perBankRdBursts::12            93013                       # Per bank write bursts
system.mem_ctrls.perBankRdBursts::13            92931                       # Per bank write bursts
system.mem_ctrls.perBankRdBursts::14            92946                       # Per bank write bursts
system.mem_ctrls.perBankRdBursts::15            92983                       # Per bank write bursts
system.mem_ctrls.perBankWrBursts::0             90902                       # Per bank write bursts
system.mem_ctrls.perBankWrBursts::1             90895                       # Per bank write bursts
system.mem_ctrls.perBankWrBursts::2             90948                       # Per bank write bursts
system.mem_ctrls.perBankWrBursts::3             91009                       # Per bank write bursts
system.mem_ctrls.perBankWrBursts::4             91008                       # Per bank write bursts
system.mem_ctrls.perBankWrBursts::5             91008                       # Per bank write bursts
system.mem_ctrls.perBankWrBursts::6             91008                       # Per bank write bursts
system.mem_ctrls.perBankWrBursts::7             91008                       # Per bank write bursts
system.mem_ctrls.perBankWrBursts::8             91008                       # Per bank write bursts
system.mem_ctrls.perBankWrBursts::9             90954                       # Per bank write bursts
system.mem_ctrls.perBankWrBursts::10            90880                       # Per bank write bursts
system.mem_ctrls.perBankWrBursts::11            90880                       # Per bank write bursts
system.mem_ctrls.perBankWrBursts::12            90880                       # Per bank write bursts
system.mem_ctrls.perBankWrBursts::13            90880                       # Per bank write bursts
system.mem_ctrls.perBankWrBursts::14            90884                       # Per bank write bursts
system.mem_ctrls.perBankWrBursts::15            90919                       # Per bank write bursts
system.mem_ctrls.avgRdQLen                       1.00                       # Average read queue length when enqueuing
system.mem_ctrls.avgWrQLen                      24.33                       # Average write queue length when enqueuing
system.mem_ctrls.totQLat                  16768891500                       # Total ticks spent queuing
system.mem_ctrls.totBusLat                 7442210000                       # Total ticks spent in databus transfers
system.mem_ctrls.totMemAccLat             44677179000                       # Total ticks spent from burst creation until serviced by the DRAM
system.mem_ctrls.avgQLat                     11266.07                       # Average queueing delay per DRAM burst
system.mem_ctrls.avgBusLat                    5000.00                       # Average bus latency per DRAM burst
system.mem_ctrls.avgMemAccLat                30016.07                       # Average memory access latency per DRAM burst
system.mem_ctrls.numRdRetry                         0                       # Number of times read queue was full causing retry
system.mem_ctrls.numWrRetry                         0                       # Number of times write queue was full causing retry
system.mem_ctrls.readRowHits                  1312322                       # Number of row buffer hits during reads
system.mem_ctrls.writeRowHits                 1292504                       # Number of row buffer hits during writes
system.mem_ctrls.readRowHitRate                 88.17                       # Row buffer hit rate for reads
system.mem_ctrls.writeRowHitRate                88.83                       # Row buffer hit rate for writes
system.mem_ctrls.readPktSize::0                     0                       # Read request sizes (log2)
system.mem_ctrls.readPktSize::1                     0                       # Read request sizes (log2)
system.mem_ctrls.readPktSize::2                     0                       # Read request sizes (log2)
system.mem_ctrls.readPktSize::3                     0                       # Read request sizes (log2)
system.mem_ctrls.readPktSize::4                     0                       # Read request sizes (log2)
system.mem_ctrls.readPktSize::5                     0                       # Read request sizes (log2)
system.mem_ctrls.readPktSize::6               1488442                       # Read request sizes (log2)
system.mem_ctrls.writePktSize::0                    0                       # Write request sizes (log2)
system.mem_ctrls.writePktSize::1                    0                       # Write request sizes (log2)
system.mem_ctrls.writePktSize::2                    0                       # Write request sizes (log2)
system.mem_ctrls.writePktSize::3                    0                       # Write request sizes (log2)
system.mem_ctrls.writePktSize::4                    0                       # Write request sizes (log2)
system.mem_ctrls.writePktSize::5                    0                       # Write request sizes (log2)
system.mem_ctrls.writePktSize::6              1455087                       # Write request sizes (log2)
system.mem_ctrls.rdQLenPdf::0                 1488362                       # What read queue length does an incoming req see
system.mem_ctrls.rdQLenPdf::1                      74                       # What read queue length does an incoming req see
system.mem_ctrls.rdQLenPdf::2                       5                       # What read queue length does an incoming req see
system.mem_ctrls.rdQLenPdf::3                       1                       # What read queue length does an incoming req see
system.mem_ctrls.rdQLenPdf::4                       0                       # What read queue length does an incoming req see
system.mem_ctrls.rdQLenPdf::5                       0                       # What read queue length does an incoming req see
system.mem_ctrls.rdQLenPdf::6                       0                       # What read queue length does an incoming req see
system.mem_ctrls.rdQLenPdf::7                       0                       # What read queue length does an incoming req see
system.mem_ctrls.rdQLenPdf::8                       0                       # What read queue length does an incoming req see
system.mem_ctrls.rdQLenPdf::9                       0                       # What read queue length does an incoming req see
system.mem_ctrls.rdQLenPdf::10                      0                       # What read queue length does an incoming req see
system.mem_ctrls.rdQLenPdf::11                      0                       # What read queue length does an incoming req see
system.mem_ctrls.rdQLenPdf::12                      0                       # What read queue length does an incoming req see
system.mem_ctrls.rdQLenPdf::13                      0                       # What read queue length does an incoming req see
system.mem_ctrls.rdQLenPdf::14                      0                       # What read queue length does an incoming req see
system.mem_ctrls.rdQLenPdf::15                      0                       # What read queue length does an incoming req see
system.mem_ctrls.rdQLenPdf::16                      0                       # What read queue length does an incoming req see
system.mem_ctrls.rdQLenPdf::17                      0                       # What read queue length does an incoming req see
system.mem_ctrls.rdQLenPdf::18                      0                       # What read queue length does an incoming req see
system.mem_ctrls.rdQLenPdf::19                      0                       # What read queue length does an incoming req see
system.mem_ctrls.rdQLenPdf::20                      0                       # What read queue length does an incoming req see
system.mem_ctrls.rdQLenPdf::21                      0                       # What read queue length does an incoming req see
system.mem_ctrls.rdQLenPdf::22                      0                       # What read queue length does an incoming req see
system.mem_ctrls.rdQLenPdf::23                      0                       # What read queue length does an incoming req see
system.mem_ctrls.rdQLenPdf::24                      0                       # What read queue length does an incoming req see
system.mem_ctrls.rdQLenPdf::25                      0                       # What read queue length does an incoming req see
system.mem_ctrls.rdQLenPdf::26                      0                       # What read queue length does an incoming req see
system.mem_ctrls.rdQLenPdf::27                      0                       # What read queue length does an incoming req see
system.mem_ctrls.rdQLenPdf::28                      0                       # What read queue length does an incoming req see
system.mem_ctrls.rdQLenPdf::29                      0                       # What read queue length does an incoming req see
system.mem_ctrls.rdQLenPdf::30                      0                       # What read queue length does an incoming req see
system.mem_ctrls.rdQLenPdf::31                      0                       # What read queue length does an incoming req see
system.mem_ctrls.wrQLenPdf::0                       1                       # What write queue length does an incoming req see
system.mem_ctrls.wrQLenPdf::1                       1                       # What write queue length does an incoming req see
system.mem_ctrls.wrQLenPdf::2                       1                       # What write queue length does an incoming req see
system.mem_ctrls.wrQLenPdf::3                       1                       # What write queue length does an incoming req see
system.mem_ctrls.wrQLenPdf::4                       1                       # What write queue length does an incoming req see
system.mem_ctrls.wrQLenPdf::5                       1                       # What write queue length does an incoming req see
system.mem_ctrls.wrQLenPdf::6                       1                       # What write queue length does an incoming req see
system.mem_ctrls.wrQLenPdf::7                       1                       # What write queue length does an incoming req see
system.mem_ctrls.wrQLenPdf::8                       1                       # What write queue length does an incoming req see
system.mem_ctrls.wrQLenPdf::9                       1                       # What write queue length does an incoming req see
system.mem_ctrls.wrQLenPdf::10                      1                       # What write queue length does an incoming req see
system.mem_ctrls.wrQLenPdf::11                      1                       # What write queue length does an incoming req see
system.mem_ctrls.wrQLenPdf::12                      1                       # What write queue length does an incoming req see
system.mem_ctrls.wrQLenPdf::13                      1                       # What write queue length does an incoming req see
system.mem_ctrls.wrQLenPdf::14                      1                       # What write queue length does an incoming req see
system.mem_ctrls.wrQLenPdf::15                  79597                       # What write queue length does an incoming req see
system.mem_ctrls.wrQLenPdf::16                  80658                       # What write queue length does an incoming req see
system.mem_ctrls.wrQLenPdf::17                  80727                       # What write queue length does an incoming req see
system.mem_ctrls.wrQLenPdf::18                  80727                       # What write queue length does an incoming req see
system.mem_ctrls.wrQLenPdf::19                  80727                       # What write queue length does an incoming req see
system.mem_ctrls.wrQLenPdf::20                  80727                       # What write queue length does an incoming req see
system.mem_ctrls.wrQLenPdf::21                  80727                       # What write queue length does an incoming req see
system.mem_ctrls.wrQLenPdf::22                  80727                       # What write queue length does an incoming req see
system.mem_ctrls.wrQLenPdf::23                  83912                       # What write queue length does an incoming req see
system.mem_ctrls.wrQLenPdf::24                  80727                       # What write queue length does an incoming req see
system.mem_ctrls.wrQLenPdf::25                  80727                       # What write queue length does an incoming req see
system.mem_ctrls.wrQLenPdf::26                  80727                       # What write queue length does an incoming req see
system.mem_ctrls.wrQLenPdf::27                  80727                       # What write queue length does an incoming req see
system.mem_ctrls.wrQLenPdf::28                  80727                       # What write queue length does an incoming req see
system.mem_ctrls.wrQLenPdf::29                  80727                       # What write queue length does an incoming req see
system.mem_ctrls.wrQLenPdf::30                  80727                       # What write queue length does an incoming req see
system.mem_ctrls.wrQLenPdf::31                  80727                       # What write queue length does an incoming req see
system.mem_ctrls.wrQLenPdf::32                  80727                       # What write queue length does an incoming req see
system.mem_ctrls.wrQLenPdf::33                      0                       # What write queue length does an incoming req see
system.mem_ctrls.wrQLenPdf::34                      0                       # What write queue length does an incoming req see
system.mem_ctrls.wrQLenPdf::35                      0                       # What write queue length does an incoming req see
system.mem_ctrls.wrQLenPdf::36                      0                       # What write queue length does an incoming req see
system.mem_ctrls.wrQLenPdf::37                      0                       # What write queue length does an incoming req see
system.mem_ctrls.wrQLenPdf::38                      0                       # What write queue length does an incoming req see
system.mem_ctrls.wrQLenPdf::39                      0                       # What write queue length does an incoming req see
system.mem_ctrls.wrQLenPdf::40                      0                       # What write queue length does an incoming req see
system.mem_ctrls.wrQLenPdf::41                      0                       # What write queue length does an incoming req see
system.mem_ctrls.wrQLenPdf::42                      0                       # What write queue length does an incoming req see
system.mem_ctrls.wrQLenPdf::43                      0                       # What write queue length does an incoming req see
system.mem_ctrls.wrQLenPdf::44                      0                       # What write queue length does an incoming req see
system.mem_ctrls.wrQLenPdf::45                      0                       # What write queue length does an incoming req see
system.mem_ctrls.wrQLenPdf::46                      0                       # What write queue length does an incoming req see
system.mem_ctrls.wrQLenPdf::47                      0                       # What write queue length does an incoming req see
system.mem_ctrls.wrQLenPdf::48                      0                       # What write queue length does an incoming req see
system.mem_ctrls.wrQLenPdf::49                      0                       # What write queue length does an incoming req see
system.mem_ctrls.wrQLenPdf::50                      0                       # What write queue length does an incoming req see
system.mem_ctrls.wrQLenPdf::51                      0                       # What write queue length does an incoming req see
system.mem_ctrls.wrQLenPdf::52                      0                       # What write queue length does an incoming req see
system.mem_ctrls.wrQLenPdf::53                      0                       # What write queue length does an incoming req see
system.mem_ctrls.wrQLenPdf::54                      0                       # What write queue length does an incoming req see
system.mem_ctrls.wrQLenPdf::55                      0                       # What write queue length does an incoming req see
system.mem_ctrls.wrQLenPdf::56                      0                       # What write queue length does an incoming req see
system.mem_ctrls.wrQLenPdf::57                      0                       # What write queue length does an incoming req see
system.mem_ctrls.wrQLenPdf::58                      0                       # What write queue length does an incoming req see
system.mem_ctrls.wrQLenPdf::59                      0                       # What write queue length does an incoming req see
system.mem_ctrls.wrQLenPdf::60                      0                       # What write queue length does an incoming req see
system.mem_ctrls.wrQLenPdf::61                      0                       # What write queue length does an incoming req see
system.mem_ctrls.wrQLenPdf::62                      0                       # What write queue length does an incoming req see
system.mem_ctrls.wrQLenPdf::63                      0                       # What write queue length does an incoming req see
system.mem_ctrls.bytesPerActivate::samples       338686                       # Bytes accessed per row activation
system.mem_ctrls.bytesPerActivate::mean    556.222483                       # Bytes accessed per row activation
system.mem_ctrls.bytesPerActivate::gmean   366.181304                       # Bytes accessed per row activation
system.mem_ctrls.bytesPerActivate::stdev   412.511473                       # Bytes accessed per row activation
system.mem_ctrls.bytesPerActivate::0-127        17987      5.31%      5.31% # Bytes accessed per row activation
system.mem_ctrls.bytesPerActivate::128-255       127213     37.56%     42.87% # Bytes accessed per row activation
system.mem_ctrls.bytesPerActivate::256-383        10451      3.09%     45.96% # Bytes accessed per row activation
system.mem_ctrls.bytesPerActivate::384-511        12521      3.70%     49.65% # Bytes accessed per row activation
system.mem_ctrls.bytesPerActivate::512-639        12643      3.73%     53.39% # Bytes accessed per row activation
system.mem_ctrls.bytesPerActivate::640-767         9270      2.74%     56.12% # Bytes accessed per row activation
system.mem_ctrls.bytesPerActivate::768-895        13503      3.99%     60.11% # Bytes accessed per row activation
system.mem_ctrls.bytesPerActivate::896-1023        12991      3.84%     63.95% # Bytes accessed per row activation
system.mem_ctrls.bytesPerActivate::1024-1151       122107     36.05%    100.00% # Bytes accessed per row activation
system.mem_ctrls.bytesPerActivate::total       338686                       # Bytes accessed per row activation
system.mem_ctrls.rdPerTurnAround::samples        80727                       # Reads before turning the bus around for writes
system.mem_ctrls.rdPerTurnAround::mean      18.437970                       # Reads before turning the bus around for writes
system.mem_ctrls.rdPerTurnAround::gmean     18.026668                       # Reads before turning the bus around for writes
system.mem_ctrls.rdPerTurnAround::stdev    109.329450                       # Reads before turning the bus around for writes
system.mem_ctrls.rdPerTurnAround::0-1023        80725    100.00%    100.00% # Reads before turning the bus around for writes
system.mem_ctrls.rdPerTurnAround::2048-3071            1      0.00%    100.00% # Reads before turning the bus around for writes
system.mem_ctrls.rdPerTurnAround::30720-31743            1      0.00%    100.00% # Reads before turning the bus around for writes
system.mem_ctrls.rdPerTurnAround::total         80727                       # Reads before turning the bus around for writes
system.mem_ctrls.wrPerTurnAround::samples        80726                       # Writes before turning the bus around for reads
system.mem_ctrls.wrPerTurnAround::mean      18.024602                       # Writes before turning the bus around for reads
system.mem_ctrls.wrPerTurnAround::gmean     18.023809                       # Writes before turning the bus around for reads
system.mem_ctrls.wrPerTurnAround::stdev      0.170807                       # Writes before turning the bus around for reads
system.mem_ctrls.wrPerTurnAround::16               69      0.09%      0.09% # Writes before turning the bus around for reads
system.mem_ctrls.wrPerTurnAround::17                2      0.00%      0.09% # Writes before turning the bus around for reads
[...]
system.cpu.icache.tags.occ_percent::.cpu.inst     0.457943                       # Average percentage of cache occupancy
system.cpu.icache.tags.occ_percent::total     0.457943                       # Average percentage of cache occupancy
system.cpu.icache.tags.occ_task_id_blocks::1024          469                       # Occupied blocks per task id
system.cpu.icache.tags.age_task_id_blocks_1024::4          469                       # Occupied blocks per task id
system.cpu.icache.tags.occ_task_id_percent::1024     0.458008                       # Percentage of cache occupancy per task id
system.cpu.icache.tags.tag_accesses          23837622                       # Number of tag accesses
system.cpu.icache.tags.data_accesses         23837622                       # Number of data accesses
system.cpu.dtb.walker.pwrStateResidencyTicks::UNDEFINED 262355453000                       # Cumulative time (in ticks) in various power states
system.cpu.dtb.stage2_mmu.stage2_tlb.walker.pwrStateResidencyTicks::UNDEFINED 262355453000                       # Cumulative time (in ticks) in various power states
system.cpu.dcache.pwrStateResidencyTicks::UNDEFINED 262355453000                       # Cumulative time (in ticks) in various power states
system.cpu.dcache.demand_hits::.cpu.data     45830682                       # number of demand (read+write) hits
system.cpu.dcache.demand_hits::total         45830682                       # number of demand (read+write) hits
system.cpu.dcache.overall_hits::.cpu.data     45830712                       # number of overall hits
system.cpu.dcache.overall_hits::total        45830712                       # number of overall hits
system.cpu.dcache.demand_misses::.cpu.data      2975768                       # number of demand (read+write) misses
system.cpu.dcache.demand_misses::total        2975768                       # number of demand (read+write) misses
system.cpu.dcache.overall_misses::.cpu.data      2975790                       # number of overall misses
system.cpu.dcache.overall_misses::total       2975790                       # number of overall misses
system.cpu.dcache.demand_miss_latency::.cpu.data 300502004000                       # number of demand (read+write) miss cycles
system.cpu.dcache.demand_miss_latency::total 300502004000                       # number of demand (read+write) miss cycles
system.cpu.dcache.overall_miss_latency::.cpu.data 300502004000                       # number of overall miss cycles
system.cpu.dcache.overall_miss_latency::total 300502004000                       # number of overall miss cycles
system.cpu.dcache.demand_accesses::.cpu.data     48806450                       # number of demand (read+write) accesses
system.cpu.dcache.demand_accesses::total     48806450                       # number of demand (read+write) accesses
system.cpu.dcache.overall_accesses::.cpu.data     48806502                       # number of overall (read+write) accesses
system.cpu.dcache.overall_accesses::total     48806502                       # number of overall (read+write) accesses
system.cpu.dcache.demand_miss_rate::.cpu.data     0.060971                       # miss rate for demand accesses
system.cpu.dcache.demand_miss_rate::total     0.060971                       # miss rate for demand accesses
system.cpu.dcache.overall_miss_rate::.cpu.data     0.060971                       # miss rate for overall accesses
system.cpu.dcache.overall_miss_rate::total     0.060971                       # miss rate for overall accesses
system.cpu.dcache.demand_avg_miss_latency::.cpu.data 100983.008084                       # average overall miss latency
system.cpu.dcache.demand_avg_miss_latency::total 100983.008084                       # average overall miss latency
system.cpu.dcache.overall_avg_miss_latency::.cpu.data 100982.261517                       # average overall miss latency
system.cpu.dcache.overall_avg_miss_latency::total 100982.261517                       # average overall miss latency
system.cpu.dcache.blocked_cycles::no_mshrs            0                       # number of cycles access was blocked
system.cpu.dcache.blocked_cycles::no_targets            0                       # number of cycles access was blocked
system.cpu.dcache.blocked::no_mshrs                 0                       # number of cycles access was blocked
system.cpu.dcache.blocked::no_targets               0                       # number of cycles access was blocked
system.cpu.dcache.avg_blocked_cycles::no_mshrs          nan                       # average number of cycles each access was blocked
system.cpu.dcache.avg_blocked_cycles::no_targets          nan                       # average number of cycles each access was blocked
system.cpu.dcache.writebacks::.writebacks      1485810                       # number of writebacks
system.cpu.dcache.writebacks::total           1485810                       # number of writebacks
system.cpu.dcache.demand_mshr_hits::.cpu.data      1487825                       # number of demand (read+write) MSHR hits
system.cpu.dcache.demand_mshr_hits::total      1487825                       # number of demand (read+write) MSHR hits
system.cpu.dcache.overall_mshr_hits::.cpu.data      1487825                       # number of overall MSHR hits
system.cpu.dcache.overall_mshr_hits::total      1487825                       # number of overall MSHR hits
system.cpu.dcache.demand_mshr_misses::.cpu.data      1487943                       # number of demand (read+write) MSHR misses
system.cpu.dcache.demand_mshr_misses::total      1487943                       # number of demand (read+write) MSHR misses
system.cpu.dcache.overall_mshr_misses::.cpu.data      1487961                       # number of overall MSHR misses
system.cpu.dcache.overall_mshr_misses::total      1487961                       # number of overall MSHR misses
system.cpu.dcache.demand_mshr_miss_latency::.cpu.data 155165859000                       # number of demand (read+write) MSHR miss cycles
system.cpu.dcache.demand_mshr_miss_latency::total 155165859000                       # number of demand (read+write) MSHR miss cycles
system.cpu.dcache.overall_mshr_miss_latency::.cpu.data 155168108000                       # number of overall MSHR miss cycles
system.cpu.dcache.overall_mshr_miss_latency::total 155168108000                       # number of overall MSHR miss cycles
system.cpu.dcache.demand_mshr_miss_rate::.cpu.data     0.030487                       # mshr miss rate for demand accesses
system.cpu.dcache.demand_mshr_miss_rate::total     0.030487                       # mshr miss rate for demand accesses
system.cpu.dcache.overall_mshr_miss_rate::.cpu.data     0.030487                       # mshr miss rate for overall accesses
system.cpu.dcache.overall_mshr_miss_rate::total     0.030487                       # mshr miss rate for overall accesses
system.cpu.dcache.demand_avg_mshr_miss_latency::.cpu.data 104282.125727                       # average overall mshr miss latency
system.cpu.dcache.demand_avg_mshr_miss_latency::total 104282.125727                       # average overall mshr miss latency
system.cpu.dcache.overall_avg_mshr_miss_latency::.cpu.data 104282.375681                       # average overall mshr miss latency
system.cpu.dcache.overall_avg_mshr_miss_latency::total 104282.375681                       # average overall mshr miss latency
system.cpu.dcache.replacements                1485913                       # number of replacements
system.cpu.dcache.ReadReq_hits::.cpu.data     35710811                       # number of ReadReq hits
system.cpu.dcache.ReadReq_hits::total        35710811                       # number of ReadReq hits
system.cpu.dcache.ReadReq_misses::.cpu.data          107                       # number of ReadReq misses
system.cpu.dcache.ReadReq_misses::total           107                       # number of ReadReq misses
system.cpu.dcache.ReadReq_miss_latency::.cpu.data     10050000                       # number of ReadReq miss cycles
system.cpu.dcache.ReadReq_miss_latency::total     10050000                       # number of ReadReq miss cycles
system.cpu.dcache.ReadReq_accesses::.cpu.data     35710918                       # number of ReadReq accesses(hits+misses)
system.cpu.dcache.ReadReq_accesses::total     35710918                       # number of ReadReq accesses(hits+misses)
system.cpu.dcache.ReadReq_miss_rate::.cpu.data     0.000003                       # miss rate for ReadReq accesses
system.cpu.dcache.ReadReq_miss_rate::total     0.000003                       # miss rate for ReadReq accesses
system.cpu.dcache.ReadReq_avg_miss_latency::.cpu.data 93925.233645                       # average ReadReq miss latency
system.cpu.dcache.ReadReq_avg_miss_latency::total 93925.233645                       # average ReadReq miss latency
system.cpu.dcache.ReadReq_mshr_hits::.cpu.data            6                       # number of ReadReq MSHR hits
system.cpu.dcache.ReadReq_mshr_hits::total            6                       # number of ReadReq MSHR hits
system.cpu.dcache.ReadReq_mshr_misses::.cpu.data          101                       # number of ReadReq MSHR misses
system.cpu.dcache.ReadReq_mshr_misses::total          101                       # number of ReadReq MSHR misses
system.cpu.dcache.ReadReq_mshr_miss_latency::.cpu.data      9006000                       # number of ReadReq MSHR miss cycles
system.cpu.dcache.ReadReq_mshr_miss_latency::total      9006000                       # number of ReadReq MSHR miss cycles
system.cpu.dcache.ReadReq_mshr_miss_rate::.cpu.data     0.000003                       # mshr miss rate for ReadReq accesses
system.cpu.dcache.ReadReq_mshr_miss_rate::total     0.000003                       # mshr miss rate for ReadReq accesses
system.cpu.dcache.ReadReq_avg_mshr_miss_latency::.cpu.data 89168.316832                       # average ReadReq mshr miss latency
system.cpu.dcache.ReadReq_avg_mshr_miss_latency::total 89168.316832                       # average ReadReq mshr miss latency
system.cpu.dcache.WriteReq_hits::.cpu.data     10119871                       # number of WriteReq hits
system.cpu.dcache.WriteReq_hits::total       10119871                       # number of WriteReq hits
system.cpu.dcache.WriteReq_misses::.cpu.data      2975661                       # number of WriteReq misses
system.cpu.dcache.WriteReq_misses::total      2975661                       # number of WriteReq misses
system.cpu.dcache.WriteReq_miss_latency::.cpu.data 300491954000                       # number of WriteReq miss cycles
system.cpu.dcache.WriteReq_miss_latency::total 300491954000                       # number of WriteReq miss cycles
system.cpu.dcache.WriteReq_accesses::.cpu.data     13095532                       # number of WriteReq accesses(hits+misses)
system.cpu.dcache.WriteReq_accesses::total     13095532                       # number of WriteReq accesses(hits+misses)
system.cpu.dcache.WriteReq_miss_rate::.cpu.data     0.227227                       # miss rate for WriteReq accesses
system.cpu.dcache.WriteReq_miss_rate::total     0.227227                       # miss rate for WriteReq accesses
system.cpu.dcache.WriteReq_avg_miss_latency::.cpu.data 100983.261870                       # average WriteReq miss latency
system.cpu.dcache.WriteReq_avg_miss_latency::total 100983.261870                       # average WriteReq miss latency
system.cpu.dcache.WriteReq_mshr_hits::.cpu.data      1487819                       # number of WriteReq MSHR hits
system.cpu.dcache.WriteReq_mshr_hits::total      1487819                       # number of WriteReq MSHR hits
system.cpu.dcache.WriteReq_mshr_misses::.cpu.data      1487842                       # number of WriteReq MSHR misses
system.cpu.dcache.WriteReq_mshr_misses::total      1487842                       # number of WriteReq MSHR misses
system.cpu.dcache.WriteReq_mshr_miss_latency::.cpu.data 155156853000                       # number of WriteReq MSHR miss cycles
system.cpu.dcache.WriteReq_mshr_miss_latency::total 155156853000                       # number of WriteReq MSHR miss cycles
system.cpu.dcache.WriteReq_mshr_miss_rate::.cpu.data     0.113614                       # mshr miss rate for WriteReq accesses
system.cpu.dcache.WriteReq_mshr_miss_rate::total     0.113614                       # mshr miss rate for WriteReq accesses
system.cpu.dcache.WriteReq_avg_mshr_miss_latency::.cpu.data 104283.151706                       # average WriteReq mshr miss latency
system.cpu.dcache.WriteReq_avg_mshr_miss_latency::total 104283.151706                       # average WriteReq mshr miss latency
system.cpu.dcache.SoftPFReq_hits::.cpu.data           30                       # number of SoftPFReq hits
system.cpu.dcache.SoftPFReq_hits::total            30                       # number of SoftPFReq hits
system.cpu.dcache.SoftPFReq_misses::.cpu.data           22                       # number of SoftPFReq misses
system.cpu.dcache.SoftPFReq_misses::total           22                       # number of SoftPFReq misses
system.cpu.dcache.SoftPFReq_accesses::.cpu.data           52                       # number of SoftPFReq accesses(hits+misses)
system.cpu.dcache.SoftPFReq_accesses::total           52                       # number of SoftPFReq accesses(hits+misses)
system.cpu.dcache.SoftPFReq_miss_rate::.cpu.data     0.423077                       # miss rate for SoftPFReq accesses
system.cpu.dcache.SoftPFReq_miss_rate::total     0.423077                       # miss rate for SoftPFReq accesses
system.cpu.dcache.SoftPFReq_mshr_misses::.cpu.data           18                       # number of SoftPFReq MSHR misses
system.cpu.dcache.SoftPFReq_mshr_misses::total           18                       # number of SoftPFReq MSHR misses
system.cpu.dcache.SoftPFReq_mshr_miss_latency::.cpu.data      2249000                       # number of SoftPFReq MSHR miss cycles
system.cpu.dcache.SoftPFReq_mshr_miss_latency::total      2249000                       # number of SoftPFReq MSHR miss cycles
system.cpu.dcache.SoftPFReq_mshr_miss_rate::.cpu.data     0.346154                       # mshr miss rate for SoftPFReq accesses
system.cpu.dcache.SoftPFReq_mshr_miss_rate::total     0.346154                       # mshr miss rate for SoftPFReq accesses
system.cpu.dcache.SoftPFReq_avg_mshr_miss_latency::.cpu.data 124944.444444                       # average SoftPFReq mshr miss latency
system.cpu.dcache.SoftPFReq_avg_mshr_miss_latency::total 124944.444444                       # average SoftPFReq mshr miss latency
system.cpu.dcache.LoadLockedReq_hits::.cpu.data           13                       # number of LoadLockedReq hits
system.cpu.dcache.LoadLockedReq_hits::total           13                       # number of LoadLockedReq hits
system.cpu.dcache.LoadLockedReq_misses::.cpu.data            1                       # number of LoadLockedReq misses
system.cpu.dcache.LoadLockedReq_misses::total            1                       # number of LoadLockedReq misses
system.cpu.dcache.LoadLockedReq_miss_latency::.cpu.data        95000                       # number of LoadLockedReq miss cycles
system.cpu.dcache.LoadLockedReq_miss_latency::total        95000                       # number of LoadLockedReq miss cycles
system.cpu.dcache.LoadLockedReq_accesses::.cpu.data           14                       # number of LoadLockedReq accesses(hits+misses)
system.cpu.dcache.LoadLockedReq_accesses::total           14                       # number of LoadLockedReq accesses(hits+misses)
system.cpu.dcache.LoadLockedReq_miss_rate::.cpu.data     0.071429                       # miss rate for LoadLockedReq accesses
system.cpu.dcache.LoadLockedReq_miss_rate::total     0.071429                       # miss rate for LoadLockedReq accesses
system.cpu.dcache.LoadLockedReq_avg_miss_latency::.cpu.data        95000                       # average LoadLockedReq miss latency
system.cpu.dcache.LoadLockedReq_avg_miss_latency::total        95000                       # average LoadLockedReq miss latency
system.cpu.dcache.LoadLockedReq_mshr_misses::.cpu.data            1                       # number of LoadLockedReq MSHR misses
system.cpu.dcache.LoadLockedReq_mshr_misses::total            1                       # number of LoadLockedReq MSHR misses
system.cpu.dcache.LoadLockedReq_mshr_miss_latency::.cpu.data        93000                       # number of LoadLockedReq MSHR miss cycles
system.cpu.dcache.LoadLockedReq_mshr_miss_latency::total        93000                       # number of LoadLockedReq MSHR miss cycles
system.cpu.dcache.LoadLockedReq_mshr_miss_rate::.cpu.data     0.071429                       # mshr miss rate for LoadLockedReq accesses
system.cpu.dcache.LoadLockedReq_mshr_miss_rate::total     0.071429                       # mshr miss rate for LoadLockedReq accesses
system.cpu.dcache.LoadLockedReq_avg_mshr_miss_latency::.cpu.data        93000                       # average LoadLockedReq mshr miss latency
system.cpu.dcache.LoadLockedReq_avg_mshr_miss_latency::total        93000                       # average LoadLockedReq mshr miss latency
system.cpu.dcache.StoreCondReq_hits::.cpu.data           14                       # number of StoreCondReq hits
system.cpu.dcache.StoreCondReq_hits::total           14                       # number of StoreCondReq hits
system.cpu.dcache.StoreCondReq_accesses::.cpu.data           14                       # number of StoreCondReq accesses(hits+misses)
system.cpu.dcache.StoreCondReq_accesses::total           14                       # number of StoreCondReq accesses(hits+misses)
system.cpu.dcache.tags.pwrStateResidencyTicks::UNDEFINED 262355453000                       # Cumulative time (in ticks) in various power states
system.cpu.dcache.tags.tagsinuse          2046.214361                       # Cycle average of tags in use
system.cpu.dcache.tags.total_refs            47318700                       # Total number of references to valid blocks.
system.cpu.dcache.tags.sampled_refs           1487961                       # Sample count of references to valid blocks.
system.cpu.dcache.tags.avg_refs             31.801035                       # Average number of references to valid blocks.
system.cpu.dcache.tags.warmup_cycle            240000                       # Cycle when the warmup percentage was hit.
system.cpu.dcache.tags.occ_blocks::.cpu.data  2046.214361                       # Average occupied blocks per requestor
system.cpu.dcache.tags.occ_percent::.cpu.data     0.999128                       # Average percentage of cache occupancy
system.cpu.dcache.tags.occ_percent::total     0.999128                       # Average percentage of cache occupancy
system.cpu.dcache.tags.occ_task_id_blocks::1024         2048                       # Occupied blocks per task id
system.cpu.dcache.tags.age_task_id_blocks_1024::0           57                       # Occupied blocks per task id
system.cpu.dcache.tags.age_task_id_blocks_1024::1          510                       # Occupied blocks per task id
system.cpu.dcache.tags.age_task_id_blocks_1024::2         1478                       # Occupied blocks per task id
system.cpu.dcache.tags.age_task_id_blocks_1024::4            3                       # Occupied blocks per task id
system.cpu.dcache.tags.occ_task_id_percent::1024            1                       # Percentage of cache occupancy per task id
system.cpu.dcache.tags.tag_accesses         196714081                       # Number of tag accesses
system.cpu.dcache.tags.data_accesses        196714081                       # Number of data accesses
system.cpu.itb.walker.pwrStateResidencyTicks::UNDEFINED 262355453000                       # Cumulative time (in ticks) in various power states
system.cpu.itb.stage2_mmu.stage2_tlb.walker.pwrStateResidencyTicks::UNDEFINED 262355453000                       # Cumulative time (in ticks) in various power states

---------- End Simulation Statistics   ----------
